Circuit: * C:\Users\Burak\Desktop\EE463\EE463_HardwareProject-M.P.W.U-electronics-\Simulation Drafts\First Draft-Three Phase and Buck converter\Draft2.asc

.OP point found by inspection.

Date: Tue Jan 21 21:00:28 2020
Total elapsed time: 0.072 seconds.

tnom = 27
temp = 27
method = modified trap
totiter = 9416
traniter = 9416
tranpoints = 2097
accept = 1707
rejected = 390
matrix size = 7
fillins = 0
solver = Normal
Matrix Compiler1: 526 bytes object code size  0.1/0.1/[0.1]
Matrix Compiler2: 557 bytes object code size  0.1/0.1/[0.1]

