Circuit: * C:\Users\Burak\Desktop\EE463\EE463_HardwareProject-M.P.W.U-electronics-\Simulation Drafts\First Draft-Three Phase and Buck converter\First assumption.asc

WARNING: Less than two connections to node N011.  This node is used by M6.
Per .tran options, skipping operating point for transient analysis.
Heightened Def Con from 0.00579684 to 0.00579684
Heightened Def Con from 0.00579685 to 0.00579685
Heightened Def Con from 0.00579685 to 0.00579685
Heightened Def Con from 0.00579685 to 0.00579685
Heightened Def Con from 0.00579686 to 0.00579686
Heightened Def Con from 0.00579686 to 0.00579686
Heightened Def Con from 0.00579686 to 0.00579686
Heightened Def Con from 0.00579686 to 0.00579686
Heightened Def Con from 0.00579686 to 0.00579687
Heightened Def Con from 0.00579687 to 0.00579687
Heightened Def Con from 0.00579691 to 0.00579691
Heightened Def Con from 0.00580114 to 0.00580114
Heightened Def Con from 0.00580121 to 0.00580121
Heightened Def Con from 0.00580121 to 0.00580121
Heightened Def Con from 0.00580122 to 0.00580123
Heightened Def Con from 0.00580123 to 0.00580123
Heightened Def Con from 0.00580123 to 0.00580123
Heightened Def Con from 0.00580123 to 0.00580123
Heightened Def Con from 0.00580124 to 0.00580124
Heightened Def Con from 0.00580124 to 0.00580124
Heightened Def Con from 0.00580124 to 0.00580124
Heightened Def Con from 0.00580125 to 0.00580125
Heightened Def Con from 0.00580125 to 0.00580125
Heightened Def Con from 0.00580125 to 0.00580125
Heightened Def Con from 0.00580126 to 0.00580126
Heightened Def Con from 0.00580126 to 0.00580126
Heightened Def Con from 0.00603781 to 0.00603781
Heightened Def Con from 0.00603781 to 0.00603781
Heightened Def Con from 0.00603781 to 0.00603781
Heightened Def Con from 0.00603782 to 0.00603782
Heightened Def Con from 0.00603782 to 0.00603782
Heightened Def Con from 0.00603782 +to 0.00603782
Heightened Def Con from 0.00603782 to 0.00603782
Heightened Def Con from 0.00603782 to 0.00603782
Heightened Def Con from 0.00606272 to 0.00606272
Heightened Def Con from 0.00606272 to 0.00606272
Heightened Def Con from 0.00606272 to 0.00606272
Heightened Def Con from 0.00606272 to 0.00606273
Heightened Def Con from 0.00606273 to 0.00606273
Heightened Def Con from 0.00606273 to 0.00606273
Heightened Def Con from 0.00606273 to 0.00606273
Heightened Def Con from 0.00606275 to 0.00606275
Heightened Def Con from 0.00606275 to 0.00606275
Heightened Def Con from 0.00606275 to 0.00606275
Heightened Def Con from 0.00606275 to 0.00606275
Heightened Def Con from 0.00606275 to 0.00606275
Heightened Def Con from 0.00606275 to 0.00606275
Heightened Def Con from 0.00606276 to 0.00606276
Heightened Def Con from 0.00606276 to 0.00606276
Heightened Def Con from 0.00606283 to 0.00606283
Heightened Def Con from 0.00606283 to 0.00606283
Heightened Def Con from 0.00606283 to 0.00606283
Heightened Def Con from 0.00606283 to 0.00606283
Heightened Def Con from 0.00606283 to 0.00606283
Heightened Def Con from 0.00606283 to 0.00606283
Heightened Def Con from 0.00606283 to 0.00606283
Heightened Def Con from 0.00606284 to 0.00606284
Heightened Def Con from 0.00606284 to 0.00606284
Heightened Def Con from 0.00606285 to 0.00606285
Heightened Def Con from 0.00606285 to 0.00606286
Heightened Def Con from 0.00606286 to 0.00606286
Heightened Def Con from 0.00606311 to 0.00606311
Heightened Def Con from 0.00606311 to 0.00606311
Heightened Def Con from 0.00606311 to 0.00606311
Heightened Def Con from 0.00606311 to 0.00606311
Heightened Def Con from 0.00606311 to 0.00606311
Heightened Def Con from 0.00606837 to 0.00606837
Heightened Def Con from 0.00606838 to 0.00606838
Heightened Def Con from 0.00606838 to 0.00606838
Heightened Def Con from 0.00606838 to 0.00606838
Heightened Def Con from 0.00606838 to 0.00606838
Heightened Def Con from 0.00606838 to 0.00606838
Heightened Def Con from 0.00606838 to 0.00606838
Heightened Def Con from 0.00606841 to 0.00606842
Heightened Def Con from 0.00606842 to 0.00606842
Heightened Def Con from 0.00606842 to 0.00606842
Heightened Def Con from 0.00606845 to 0.00606845
Heightened Def Con from 0.00606845 to 0.00606845
Heightened Def Con from 0.00606846 to 0.00606846
Heightened Def Con from 0.00606854 to 0.00606854
Heightened Def Con from 0.00606855 to 0.00606855
Heightened Def Con from 0.00606855 to 0.00606855
Heightened Def Con from 0.00606855 to 0.00606855
Heightened Def Con from 0.00606855 to 0.00606855
Heightened Def Con from 0.00606856 to 0.00606856
Heightened Def Con from 0.00606857 to 0.00606857
Heightened Def Con from 0.00606857 to 0.00606857
Heightened Def Con from 0.00606858 to 0.00606858
Heightened Def Con from 0.00606858 to 0.00606858
Heightened Def Con from 0.00606892 to 0.00606892
Heightened Def Con from 0.00606892 to 0.00606892
Heightened Def Con from 0.00606892 to 0.00606892
Heightened Def Con from 0.00606893 to 0.00606893
Heightened Def Con from 0.00606893 to 0.00606893
Heightened Def Con from 0.00606893 to 0.00606893
Heightened Def Con from 0.00606893 to 0.00606893
Heightened Def Con from 0.00606893 to 0.00606893
Heightened Def Con from 0.00606893 to 0.00606893
Heightened Def Con from 0.00606894 to 0.00606894
Heightened Def Con from 0.00606894 to 0.00606894
Heightened Def Con from 0.00606895 to 0.00606895
Heightened Def Con from 0.00606895 to 0.00606895
Heightened Def Con from 0.00606895 to 0.00606895
Heightened Def Con from 0.00606895 to 0.00606895
Heightened Def Con from 0.00606895 to 0.00606895
Heightened Def Con from 0.00606895 to 0.00606895
Heightened Def Con from 0.00606895 to 0.00606895
Heightened Def Con from 0.00606895 to 0.00606895
Heightened Def Con from 0.00606895 to 0.00606895
Heightened Def Con from 0.00606895 to 0.00606895
Heightened Def Con from 0.00606895 to 0.00606895
Heightened Def Con from 0.00606895 to 0.00606895
Heightened Def Con from 0.00606895 to 0.00606895
Heightened Def Con from 0.00606895 to 0.00606895
Heightened Def Con from 0.00606895 to 0.00606896
Heightened Def Con from 0.00606923 to 0.00606923
Heightened Def Con from 0.00606923 to 0.00606923
Heightened Def Con from 0.00606923 to 0.00606923
Heightened Def Con from 0.00606924 to 0.00606924
Heightened Def Con from 0.00606931 to 0.00606931
Heightened Def Con from 0.00606931 to 0.00606931
Heightened Def Con from 0.00606931 to 0.00606931
Heightened Def Con from 0.00606931 to 0.00606931
Heightened Def Con from 0.00606931 to 0.00606931
Heightened Def Con from 0.00606931 to 0.00606931
Heightened Def Con from 0.00606932 to 0.00606932
Heightened Def Con from 0.00606932 to 0.00606932
Heightened Def Con from 0.00606932 to 0.00606932
Heightened Def Con from 0.00606932 to 0.00606932
Heightened Def Con from 0.00606932 to 0.00606932
Heightened Def Con from 0.00606934 to 0.00606934
Heightened Def Con from 0.00606934 to 0.00606934
Heightened Def Con from 0.00606934 to 0.00606934
Heightened Def Con from 0.00606935 to 0.00606935
Heightened Def Con from 0.00606935 to 0.00606935
Heightened Def Con from 0.00606938 to 0.00606939
Heightened Def Con from 0.00606939 to 0.00606939
Heightened Def Con from 0.00606939 to 0.00606939
Heightened Def Con from 0.00606939 to 0.00606939
Heightened Def Con from 0.00606939 to 0.00606939
Heightened Def Con from 0.00606939 to 0.00606939
Heightened Def Con from 0.0060694 to 0.0060694
Heightened Def Con from 0.00606941 to 0.00606941
Heightened Def Con from 0.00606941 to 0.00606941
Heightened Def Con from 0.00606941 to 0.00606941
Heightened Def Con from 0.00606941 to 0.00606941
Heightened Def Con from 0.00606971 to 0.00606971
Heightened Def Con from 0.00606971 to 0.00606971
Heightened Def Con from 0.00606973 to 0.00606973
Heightened Def Con from 0.00606973 to 0.00606973
Heightened Def Con from 0.00606973 to 0.00606973
Heightened Def Con from 0.00606973 to 0.00606973
Heightened Def Con from 0.00606973 +to 0.00606973
Heightened Def Con from 0.00606973 to 0.00606973
Heightened Def Con from 0.00606974 to 0.00606974
Heightened Def Con from 0.00606975 to 0.00606975
Heightened Def Con from 0.00606976 to 0.00606976
Heightened Def Con from 0.00606976 to 0.00606976
Heightened Def Con from 0.00606976 to 0.00606976
Heightened Def Con from 0.00606977 to 0.00606977
Heightened Def Con from 0.00606977 to 0.00606977
Heightened Def Con from 0.00606977 to 0.00606977
Heightened Def Con from 0.00606977 to 0.00606977
Heightened Def Con from 0.00606977 to 0.00606977
Heightened Def Con from 0.00606977 to 0.00606977
Heightened Def Con from 0.00606977 to 0.00606977
Heightened Def Con from 0.00606978 to 0.00606978
Heightened Def Con from 0.00606978 to 0.00606978
Heightened Def Con from 0.00606978 to 0.00606978
Heightened Def Con from 0.00606982 to 0.00606982
Heightened Def Con from 0.00606982 to 0.00606982
Heightened Def Con from 0.00606982 to 0.00606982
Heightened Def Con from 0.00606982 to 0.00606982
Heightened Def Con from 0.00606983 to 0.00606983
Heightened Def Con from 0.00606983 to 0.00606983
Heightened Def Con from 0.00606983 to 0.00606983
Heightened Def Con from 0.00606983 to 0.00606983
Heightened Def Con from 0.00606984 to 0.00606984
Heightened Def Con from 0.00606984 to 0.00606984
Heightened Def Con from 0.00606991 to 0.00606991
Heightened Def Con from 0.00606991 to 0.00606991
Heightened Def Con from 0.00606991 to 0.00606992
Heightened Def Con from 0.00606992 to 0.00606992
Heightened Def Con from 0.00606992 to 0.00606992
Heightened Def Con from 0.00606992 to 0.00606992
Heightened Def Con from 0.00606992 to 0.00606993
Heightened Def Con from 0.00607067 to 0.00607067
Heightened Def Con from 0.00607067 to 0.00607067
Heightened Def Con from 0.00607067 to 0.00607067
Heightened Def Con from 0.00607067 to 0.00607067
Heightened Def Con from 0.00607068 to 0.00607068
Heightened Def Con from 0.00607068 to 0.00607068
Heightened Def Con from 0.00607068 to 0.00607068
Heightened Def Con from 0.00607069 to 0.00607069
Heightened Def Con from 0.00607069 to 0.00607069
Heightened Def Con from 0.0060707 to 0.0060707
Heightened Def Con from 0.00607077 to 0.00607077
Heightened Def Con from 0.00607077 to 0.00607077
Heightened Def Con from 0.00607078 to 0.00607078
Heightened Def Con from 0.00607078 to 0.00607078
Heightened Def Con from 0.00607078 to 0.00607078
Heightened Def Con from 0.0060708 to 0.0060708
Heightened Def Con from 0.00607081 to 0.00607081
Heightened Def Con from 0.00607081 to 0.00607081
Heightened Def Con from 0.00607214 to 0.00607214
Heightened Def Con from 0.00607226 to 0.00607226
Heightened Def Con from 0.0060781 to 0.0060781
Heightened Def Con from 0.00607811 to 0.00607811
Heightened Def Con from 0.00607812 to 0.00607812
Heightened Def Con from 0.00608124 to 0.00608124
Heightened Def Con from 0.00608124 to 0.00608124
Heightened Def Con from 0.00608124 to 0.00608124
Heightened Def Con from 0.00608124 to 0.00608124
Heightened Def Con from 0.00608124 to 0.00608124
Heightened Def Con from 0.00608124 to 0.00608124
Heightened Def Con from 0.00608128 to 0.00608128
Heightened Def Con from 0.00608128 to 0.00608128
Heightened Def Con from 0.00608128 to 0.00608128
Heightened Def Con from 0.00608128 to 0.00608128
Heightened Def Con from 0.00608128 to 0.00608128
Heightened Def Con from 0.00608128 to 0.00608128
Heightened Def Con from 0.00608128 to 0.00608128
Heightened Def Con from 0.00608128 to 0.00608128
Heightened Def Con from 0.00608129 to 0.00608129
Heightened Def Con from 0.00608129 to 0.00608129
Heightened Def Con from 0.0060813 to 0.0060813
Heightened Def Con from 0.00608131 to 0.00608131
Heightened Def Con from 0.00608131 to 0.00608131
Heightened Def Con from 0.00608131 to 0.00608131
Heightened Def Con from 0.00608131 to 0.00608131
Heightened Def Con from 0.00608133 to 0.00608133
Heightened Def Con from 0.00608133 to 0.00608134
Heightened Def Con from 0.00608135 to 0.00608135
Heightened Def Con from 0.00608135 to 0.00608136
Heightened Def Con from 0.00608138 to 0.00608138
Heightened Def Con from 0.00608138 to 0.00608138
Heightened Def Con from 0.00608138 to 0.00608138
Heightened Def Con from 0.00608138 to 0.00608138
Heightened Def Con from 0.00608138 to 0.00608139
Heightened Def Con from 0.00608139 to 0.00608139
Heightened Def Con from 0.00608139 to 0.00608139
Heightened Def Con from 0.00608139 to 0.00608139
Heightened Def Con from 0.00608139 to 0.00608139
Heightened Def Con from 0.00608139 to 0.00608139
Heightened Def Con from 0.00608142 to 0.00608142
Heightened Def Con from 0.00608142 to 0.00608142
Heightened Def Con from 0.00608142 to 0.00608142
Heightened Def Con from 0.00608142 to 0.00608142
Heightened Def Con from 0.00608142 to 0.00608142
Heightened Def Con from 0.00608144 to 0.00608144
Heightened Def Con from 0.00608144 to 0.00608144
Heightened Def Con from 0.00608145 to 0.00608145
Heightened Def Con from 0.00608145 to 0.00608145
Heightened Def Con from 0.00608145 to 0.00608145
Heightened Def Con from 0.00608145 to 0.00608145
Heightened Def Con from 0.00608145 to 0.00608145
Heightened Def Con from 0.00608147 to 0.00608147
Heightened Def Con from 0.00608148 to 0.00608148
Heightened Def Con from 0.00608148 to 0.00608148
Heightened Def Con from 0.00608148 to 0.00608148
Heightened Def Con from 0.00608148 to 0.00608148
Heightened Def Con from 0.00608174 to 0.00608174
Heightened Def Con from 0.00608174 to 0.00608174
Heightened Def Con from 0.00608174 to 0.00608174
Heightened Def Con from 0.00608175 to 0.00608175
Heightened Def Con from 0.00608175 to 0.00608175
Heightened Def Con from 0.00608175 to 0.00608175
Heightened Def Con from 0.00608175 to 0.00608175
Heightened Def Con from 0.00608191 to 0.00608191
Heightened Def Con from 0.00608192 to 0.00608192
Heightened Def Con from 0.00608194 to 0.00608194
Heightened Def Con from 0.00608194 to 0.00608194
Heightened Def Con from 0.00608194 to 0.00608194
Heightened Def Con from 0.00608195 to 0.00608195
Heightened Def Con from 0.00608198 to 0.00608198
Heightened Def Con from 0.00608198 to 0.00608199
Heightened Def Con from 0.006082 to 0.006082
Heightened Def Con from 0.006082 to 0.006082
Heightened Def Con from 0.006082 to 0.006082
Heightened Def Con from 0.006082 to 0.006082
Heightened Def Con from 0.00608201 to 0.00608201
Heightened Def Con from 0.00608201 to 0.00608201
Heightened Def Con from 0.00608201 to 0.00608201
Heightened Def Con from 0.00608201 to 0.00608201
Heightened Def Con from 0.00608201 to 0.00608201
Heightened Def Con from 0.00608202 to 0.00608202
Heightened Def Con from 0.00608202 to 0.00608202
Heightened Def Con from 0.00608202 to 0.00608202
Heightened Def Con from 0.00608202 to 0.00608202
Heightened Def Con from 0.00608203 to 0.00608203
Heightened Def Con from 0.00608204 to 0.00608205
Heightened Def Con from 0.00608205 to 0.00608205
Heightened Def Con from 0.00608205 to 0.00608206
Heightened Def Con from 0.00608624 to 0.00608624
Heightened Def Con from 0.00608624 to 0.00608624
Heightened Def Con from 0.00608624 to 0.00608624
Heightened Def Con from 0.00608638 to 0.00608638
Heightened Def Con from 0.00608638 to 0.00608638
Heightened Def Con from 0.00608638 to 0.00608638
Heightened Def Con from 0.00608638 to 0.00608638
Heightened Def Con from 0.00608638 to 0.00608638
Heightened Def Con from 0.00608638 to 0.00608638
Heightened Def Con from 0.00608638 to 0.00608639
Heightened Def Con from 0.00608639 to 0.00608639
Heightened Def Con from 0.00608639 to 0.00608639
Heightened Def Con from 0.00608639 to 0.00608639
Heightened Def Con from 0.00608639 to 0.00608639
Heightened Def Con from 0.0060864 to 0.0060864
Heightened Def Con from 0.0060864 to 0.0060864
Heightened Def Con from 0.0060864 to 0.0060864
Heightened Def Con from 0.0060864 to 0.0060864
Heightened Def Con from 0.0060864 to 0.00608641
Heightened Def Con from 0.00608643 to 0.00608643
Heightened Def Con from 0.00608643 to 0.00608643
Heightened Def Con from 0.00608643 to 0.00608644
Heightened Def Con from 0.00608644 to 0.00608645
Heightened Def Con from 0.00608645 to 0.00608645
Heightened Def Con from 0.00608645 to 0.00608646
Heightened Def Con from 0.00608646 to 0.00608646
Heightened Def Con from 0.00608646 to 0.00608646
Heightened Def Con from 0.00608646 to 0.00608647
Heightened Def Con from 0.00608647 to 0.00608647
Heightened Def Con from 0.00608647 to 0.00608647
Heightened Def Con from 0.00608647 to 0.00608647
Heightened Def Con from 0.00608647 to 0.00608647
Heightened Def Con from 0.00608648 to 0.00608648
Heightened Def Con from 0.00608648 to 0.00608648
Heightened Def Con from 0.00608649 to 0.00608649
Heightened Def Con from 0.00608649 to 0.00608649
Heightened Def Con from 0.00608649 to 0.00608649
Heightened Def Con from 0.00608649 to 0.0060865
Heightened Def Con from 0.0060865 to 0.0060865
Heightened Def Con from 0.0060865 to 0.0060865
Heightened Def Con from 0.0060865 to 0.0060865
Heightened Def Con from 0.0060865 to 0.0060865
Heightened Def Con from 0.0060865 to 0.0060865
Heightened Def Con from 0.0060865 to 0.0060865
Heightened Def Con from 0.0060865 to 0.0060865
Heightened Def Con from 0.0060865 to 0.0060865
Heightened Def Con from 0.0060865 to 0.0060865
Heightened Def Con from 0.00608652 to 0.00608652
Heightened Def Con from 0.00608654 to 0.00608654
Heightened Def Con from 0.00608654 to 0.00608655
Heightened Def Con from 0.00608655 to 0.00608655
Heightened Def Con from 0.00608655 +to 0.00608655
Heightened Def Con from 0.00608655 to 0.00608655
Heightened Def Con from 0.00608656 to 0.00608656
Heightened Def Con from 0.00608656 to 0.00608656
Heightened Def Con from 0.00608656 to 0.00608656
Heightened Def Con from 0.00608658 to 0.00608658
Heightened Def Con from 0.00608658 to 0.00608658
Heightened Def Con from 0.00608658 to 0.00608658
Heightened Def Con from 0.00608659 to 0.00608659
Heightened Def Con from 0.00608659 to 0.00608659
Heightened Def Con from 0.00608659 to 0.00608659
Heightened Def Con from 0.00608659 to 0.00608659
Heightened Def Con from 0.00608664 to 0.00608664
Heightened Def Con from 0.00608664 to 0.00608664
Heightened Def Con from 0.00608664 to 0.00608664
Heightened Def Con from 0.00608664 to 0.00608664
Heightened Def Con from 0.00608664 to 0.00608664
Heightened Def Con from 0.00608664 to 0.00608664
Heightened Def Con from 0.00608664 to 0.00608664
Heightened Def Con from 0.00608735 to 0.00608735
Heightened Def Con from 0.00608736 to 0.00608736
Heightened Def Con from 0.00608736 to 0.00608736
Heightened Def Con from 0.00608736 to 0.00608736
Heightened Def Con from 0.00608736 to 0.00608736
Heightened Def Con from 0.00608736 to 0.00608736
Heightened Def Con from 0.00608737 to 0.00608737
Heightened Def Con from 0.00608737 to 0.00608737
Heightened Def Con from 0.00608739 to 0.00608739
Heightened Def Con from 0.00608739 +to 0.00608739
Heightened Def Con from 0.00608739 to 0.00608739
Heightened Def Con from 0.0060874 to 0.0060874
Heightened Def Con from 0.0060874 to 0.0060874
Heightened Def Con from 0.0060874 to 0.0060874
Heightened Def Con from 0.0060874 to 0.0060874
Heightened Def Con from 0.0060874 to 0.0060874
Heightened Def Con from 0.0060874 to 0.0060874
Heightened Def Con from 0.00608741 to 0.00608741
Heightened Def Con from 0.00608741 +to 0.00608741
Heightened Def Con from 0.00608741 to 0.00608741
Heightened Def Con from 0.00608741 to 0.00608741
Heightened Def Con from 0.00608741 to 0.00608741
Heightened Def Con from 0.00608741 to 0.00608741
Heightened Def Con from 0.00608782 to 0.00608782
Heightened Def Con from 0.00608782 to 0.00608782
Heightened Def Con from 0.00608782 to 0.00608782
Heightened Def Con from 0.00608782 to 0.00608782
Heightened Def Con from 0.00608783 to 0.00608783
Heightened Def Con from 0.00608786 to 0.00608787
Heightened Def Con from 0.00608787 to 0.00608787
Heightened Def Con from 0.00608787 to 0.00608787
Heightened Def Con from 0.00608787 to 0.00608787
Heightened Def Con from 0.00608787 to 0.00608787
Heightened Def Con from 0.00608787 to 0.00608787
Heightened Def Con from 0.00608787 to 0.00608787
Heightened Def Con from 0.00608788 to 0.00608788
Heightened Def Con from 0.00608788 to 0.00608788
Heightened Def Con from 0.00608788 to 0.00608788
Heightened Def Con from 0.00608789 to 0.00608789
Heightened Def Con from 0.00608789 to 0.00608789
Heightened Def Con from 0.00608789 to 0.00608789
Heightened Def Con from 0.00608832 to 0.00608832
Heightened Def Con from 0.00608832 to 0.00608832
Heightened Def Con from 0.00608832 to 0.00608832
Heightened Def Con from 0.00608832 to 0.00608832
Heightened Def Con from 0.00608832 to 0.00608832
Heightened Def Con from 0.00608832 to 0.00608832
Heightened Def Con from 0.00608832 to 0.00608833
Heightened Def Con from 0.00608833 to 0.00608833
Heightened Def Con from 0.00608833 to 0.00608833
Heightened Def Con from 0.00608833 +to 0.00608833
Heightened Def Con from 0.00608833 to 0.00608833
Heightened Def Con from 0.00608834 to 0.00608834
Heightened Def Con from 0.00608834 to 0.00608834
Heightened Def Con from 0.00608834 to 0.00608834
Heightened Def Con from 0.00608834 +to 0.00608834
Heightened Def Con from 0.00608834 to 0.00608835
Heightened Def Con from 0.00608838 to 0.00608838
Heightened Def Con from 0.00609029 to 0.00609029
Heightened Def Con from 0.00609029 to 0.00609029
Heightened Def Con from 0.00609031 to 0.00609031
Heightened Def Con from 0.00609031 to 0.00609031
Heightened Def Con from 0.00609539 to 0.0060954
Heightened Def Con from 0.00609543 to 0.00609543
Heightened Def Con from 0.00609558 to 0.00609558
Heightened Def Con from 0.00609559 to 0.00609559
Heightened Def Con from 0.00609559 to 0.00609559
Heightened Def Con from 0.00609559 to 0.00609559
Heightened Def Con from 0.00609559 to 0.00609559
Heightened Def Con from 0.00609559 to 0.0060956
Heightened Def Con from 0.0060956 to 0.0060956
Heightened Def Con from 0.0060956 to 0.0060956
Heightened Def Con from 0.0060956 to 0.0060956
Heightened Def Con from 0.0060956 to 0.0060956
Heightened Def Con from 0.0060956 to 0.0060956
Heightened Def Con from 0.0060956 to 0.0060956
Heightened Def Con from 0.0060956 to 0.0060956
Heightened Def Con from 0.0060956 +to 0.00609561
Heightened Def Con from 0.00609562 to 0.00609562
Heightened Def Con from 0.0061002 to 0.0061002
Heightened Def Con from 0.0061002 to 0.00610021
Heightened Def Con from 0.00610021 to 0.00610021
Heightened Def Con from 0.00611503 to 0.00611503
Heightened Def Con from 0.00613474 to 0.00613474
Heightened Def Con from 0.00613474 to 0.00613475
Heightened Def Con from 0.00616286 to 0.00616286
Heightened Def Con from 0.00616286 to 0.00616287
Heightened Def Con from 0.00616287 to 0.00616287
Heightened Def Con from 0.00621039 to 0.00621039
Heightened Def Con from 0.00621329 to 0.00621329
Heightened Def Con from 0.00621466 to 0.00621466
Heightened Def Con from 0.00653335 to 0.00653335
Heightened Def Con from 0.00653336 to 0.00653336
Heightened Def Con from 0.00653338 to 0.00653338
Heightened Def Con from 0.00653338 to 0.00653338
Heightened Def Con from 0.00653338 to 0.00653338
Heightened Def Con from 0.00653338 to 0.00653338
Heightened Def Con from 0.00653341 to 0.00653341
Heightened Def Con from 0.00653341 to 0.00653341
Heightened Def Con from 0.00653341 to 0.00653341
Heightened Def Con from 0.00653341 to 0.00653341
Heightened Def Con from 0.00653342 to 0.00653342
Heightened Def Con from 0.0065484 to 0.0065484
Heightened Def Con from 0.00656127 to 0.00656127
Heightened Def Con from 0.00656204 to 0.00656204
Heightened Def Con from 0.00656204 to 0.00656204
Heightened Def Con from 0.00656218 to 0.00656218
Heightened Def Con from 0.00656221 to 0.00656222
Heightened Def Con from 0.00656457 to 0.00656457
Heightened Def Con from 0.0065646 to 0.00656461
Heightened Def Con from 0.00656461 to 0.00656461
Heightened Def Con from 0.00656461 to 0.00656461
Heightened Def Con from 0.00656471 to 0.00656471
Heightened Def Con from 0.00656473 to 0.00656473
Heightened Def Con from 0.00656474 to 0.00656474
Heightened Def Con from 0.00656474 to 0.00656474
Heightened Def Con from 0.00656474 to 0.00656474
Heightened Def Con from 0.00656474 to 0.00656474
Heightened Def Con from 0.0065651 to 0.0065651
Heightened Def Con from 0.0065651 to 0.0065651
Heightened Def Con from 0.0065651 to 0.0065651
Heightened Def Con from 0.00658134 to 0.00658134
Heightened Def Con from 0.00658135 to 0.00658135
Heightened Def Con from 0.00658135 to 0.00658135
Heightened Def Con from 0.0065814 to 0.0065814
Heightened Def Con from 0.0065814 to 0.0065814
Heightened Def Con from 0.00658143 to 0.00658143
Heightened Def Con from 0.0065815 to 0.0065815
Heightened Def Con from 0.00658151 to 0.00658151
Heightened Def Con from 0.00658151 to 0.00658151
Heightened Def Con from 0.00658151 to 0.00658151
Heightened Def Con from 0.00658151 to 0.00658151
Heightened Def Con from 0.00658153 to 0.00658153
Heightened Def Con from 0.00658153 to 0.00658153
Heightened Def Con from 0.00658153 to 0.00658153
Heightened Def Con from 0.00658154 to 0.00658154
Heightened Def Con from 0.00658154 to 0.00658154
Heightened Def Con from 0.00658154 to 0.00658154
Heightened Def Con from 0.00658158 to 0.00658158
Heightened Def Con from 0.00658159 to 0.00658159
Heightened Def Con from 0.00658159 to 0.00658159
Heightened Def Con from 0.00658159 to 0.00658159
Heightened Def Con from 0.0065816 to 0.0065816
Heightened Def Con from 0.00658167 to 0.00658168
Heightened Def Con from 0.00658203 to 0.00658203
Heightened Def Con from 0.00658208 to 0.00658208
Heightened Def Con from 0.00658209 to 0.00658209
Heightened Def Con from 0.00658209 to 0.00658209
Heightened Def Con from 0.00658209 to 0.00658209
Heightened Def Con from 0.00658209 to 0.00658209
Heightened Def Con from 0.00658217 to 0.00658217
Heightened Def Con from 0.00658217 to 0.00658218
Heightened Def Con from 0.00658219 to 0.00658219
Heightened Def Con from 0.00659693 to 0.00659693
Heightened Def Con from 0.00660129 to 0.0066013
Heightened Def Con from 0.00660144 to 0.00660145
Heightened Def Con from 0.00660173 to 0.00660174
Heightened Def Con from 0.00660174 to 0.00660174
Heightened Def Con from 0.00660174 to 0.00660174
Heightened Def Con from 0.00660786 to 0.00660786
Heightened Def Con from 0.00660786 to 0.00660786
Heightened Def Con from 0.00660786 to 0.00660786
Heightened Def Con from 0.00662328 to 0.00662328
Heightened Def Con from 0.00662329 to 0.00662329
Heightened Def Con from 0.00662329 +to 0.00662329
Heightened Def Con from 0.0066233 to 0.0066233
Heightened Def Con from 0.00662331 to 0.00662331
Heightened Def Con from 0.00662331 to 0.00662331
Heightened Def Con from 0.00662331 to 0.00662331
Heightened Def Con from 0.00662331 to 0.00662331
Heightened Def Con from 0.00662331 to 0.00662332
Heightened Def Con from 0.00662332 to 0.00662332
Heightened Def Con from 0.00662332 to 0.00662332
Heightened Def Con from 0.00662333 to 0.00662333
Heightened Def Con from 0.00662333 to 0.00662333
Heightened Def Con from 0.00662333 to 0.00662333
Heightened Def Con from 0.00662351 to 0.00662352
Heightened Def Con from 0.00664805 to 0.00664805
Heightened Def Con from 0.0155257 to 0.0155257
Heightened Def Con from 0.0155264 to 0.0155264
Heightened Def Con from 0.0155264 +to 0.0155264
Heightened Def Con from 0.0155264 to 0.0155264
Heightened Def Con from 0.0155264 +to 0.0155264
Heightened Def Con from 0.0155264 to 0.0155264
Heightened Def Con from 0.0155265 to 0.0155265
Heightened Def Con from 0.0155266 to 0.0155266
Heightened Def Con from 0.0155266 to 0.0155266
Heightened Def Con from 0.0155266 to 0.0155266
Heightened Def Con from 0.0155267 to 0.0155267
Heightened Def Con from 0.0155267 to 0.0155267
Heightened Def Con from 0.0155269 to 0.0155269
Heightened Def Con from 0.0155269 to 0.0155269
Heightened Def Con from 0.0155269 to 0.0155269
Heightened Def Con from 0.0155269 to 0.0155269
Heightened Def Con from 0.0155269 to 0.0155269
Heightened Def Con from 0.0155269 to 0.0155269
Heightened Def Con from 0.0155269 to 0.0155269
Heightened Def Con from 0.0155269 to 0.0155269
Heightened Def Con from 0.0155269 to 0.0155269
Heightened Def Con from 0.0155269 to 0.0155269
Heightened Def Con from 0.0155269 to 0.0155269
Heightened Def Con from 0.0155269 to 0.015527
Heightened Def Con from 0.015527 to 0.015527
Heightened Def Con from 0.015527 to 0.015527
Heightened Def Con from 0.015527 to 0.015527
Heightened Def Con from 0.015527 to 0.015527
Heightened Def Con from 0.015527 to 0.015527
Heightened Def Con from 0.015527 to 0.015527
Heightened Def Con from 0.015527 to 0.015527
Heightened Def Con from 0.015527 to 0.015527
Heightened Def Con from 0.015527 to 0.015527
Heightened Def Con from 0.0155309 to 0.0155309
Heightened Def Con from 0.0155309 to 0.0155309
Heightened Def Con from 0.0155309 to 0.0155309
Heightened Def Con from 0.0155309 to 0.0155309
Heightened Def Con from 0.0155309 to 0.0155309
Heightened Def Con from 0.0155309 to 0.0155309
Heightened Def Con from 0.015531 to 0.015531
Heightened Def Con from 0.015531 to 0.015531
Heightened Def Con from 0.015531 to 0.015531
Heightened Def Con from 0.015531 to 0.015531
Heightened Def Con from 0.0156 to 0.0156
Heightened Def Con from 0.0156 to 0.0156
Heightened Def Con from 0.0156042 to 0.0156042
Heightened Def Con from 0.0156042 to 0.0156042
Heightened Def Con from 0.0156042 to 0.0156042
Heightened Def Con from 0.0156042 to 0.0156042
Heightened Def Con from 0.0156043 to 0.0156043
Heightened Def Con from 0.0156043 to 0.0156043
Heightened Def Con from 0.0156043 to 0.0156043
Heightened Def Con from 0.0156044 to 0.0156044
Heightened Def Con from 0.0156044 to 0.0156044
Heightened Def Con from 0.0156044 to 0.0156044
Heightened Def Con from 0.0156044 to 0.0156044
Heightened Def Con from 0.0156044 to 0.0156044
Heightened Def Con from 0.0156044 to 0.0156044
Heightened Def Con from 0.0156044 to 0.0156044
Heightened Def Con from 0.0156044 to 0.0156044
Heightened Def Con from 0.0156044 to 0.0156044
Heightened Def Con from 0.0156044 to 0.0156044
Heightened Def Con from 0.0156044 to 0.0156044
Heightened Def Con from 0.0156044 to 0.0156044
Heightened Def Con from 0.0156045 to 0.0156045
Heightened Def Con from 0.0156045 to 0.0156045
Heightened Def Con from 0.0156054 to 0.0156054
Heightened Def Con from 0.0156054 to 0.0156054
Heightened Def Con from 0.0156054 to 0.0156054
Heightened Def Con from 0.0156054 to 0.0156054
Heightened Def Con from 0.0156054 to 0.0156054
Heightened Def Con from 0.0156054 to 0.0156054
Heightened Def Con from 0.0156054 +to 0.0156054
Heightened Def Con from 0.0156113 to 0.0156113
Heightened Def Con from 0.0156113 to 0.0156113
Heightened Def Con from 0.0156113 to 0.0156113
Heightened Def Con from 0.0156117 to 0.0156117
Heightened Def Con from 0.0156117 to 0.0156117
Heightened Def Con from 0.0156123 to 0.0156123
Heightened Def Con from 0.0156123 to 0.0156123
Heightened Def Con from 0.0156123 to 0.0156123
Heightened Def Con from 0.0156123 to 0.0156123
Heightened Def Con from 0.0156125 to 0.0156125
Heightened Def Con from 0.0156125 to 0.0156125
Heightened Def Con from 0.0156133 to 0.0156133
Heightened Def Con from 0.0156133 to 0.0156133
Heightened Def Con from 0.0156133 to 0.0156133
Heightened Def Con from 0.0156133 to 0.0156133
Heightened Def Con from 0.0156133 to 0.0156133
Heightened Def Con from 0.0156134 to 0.0156134
Heightened Def Con from 0.0156134 to 0.0156134
Heightened Def Con from 0.0156138 to 0.0156138
Heightened Def Con from 0.0156138 to 0.0156138
Heightened Def Con from 0.0156138 to 0.0156138
Heightened Def Con from 0.0156138 to 0.0156138
Heightened Def Con from 0.0156138 to 0.0156138
Heightened Def Con from 0.0156138 to 0.0156138
Heightened Def Con from 0.0156179 to 0.0156179
Heightened Def Con from 0.015618 to 0.015618
Heightened Def Con from 0.015618 to 0.015618
Heightened Def Con from 0.015618 to 0.015618
Heightened Def Con from 0.015618 to 0.015618
Heightened Def Con from 0.015618 to 0.015618
Heightened Def Con from 0.0156181 to 0.0156181
Heightened Def Con from 0.0156181 to 0.0156181
Heightened Def Con from 0.0156181 to 0.0156181
Heightened Def Con from 0.0156181 to 0.0156181
Heightened Def Con from 0.0156181 to 0.0156181
Heightened Def Con from 0.0156181 to 0.0156181
Heightened Def Con from 0.0156181 to 0.0156181
Heightened Def Con from 0.0156181 to 0.0156181
Heightened Def Con from 0.0156181 to 0.0156181
Heightened Def Con from 0.0156181 to 0.0156181
Heightened Def Con from 0.0156181 to 0.0156181
Heightened Def Con from 0.0156181 to 0.0156181
Heightened Def Con from 0.0156181 to 0.0156181
Heightened Def Con from 0.0156181 to 0.0156181
Heightened Def Con from 0.0156181 to 0.0156181
Heightened Def Con from 0.0156181 to 0.0156181
Heightened Def Con from 0.0156181 to 0.0156181
Heightened Def Con from 0.0156181 to 0.0156181
Heightened Def Con from 0.0156181 +to 0.0156181
Heightened Def Con from 0.0156181 to 0.0156181
Heightened Def Con from 0.0156181 to 0.0156181
Heightened Def Con from 0.0156181 to 0.0156181
Heightened Def Con from 0.0156181 to 0.0156181
Heightened Def Con from 0.0156181 to 0.0156181
Heightened Def Con from 0.0156181 to 0.0156181
Heightened Def Con from 0.0156181 to 0.0156181
Heightened Def Con from 0.0156181 to 0.0156181
Heightened Def Con from 0.0156181 to 0.0156181
Heightened Def Con from 0.0156181 to 0.0156181
Heightened Def Con from 0.0156181 to 0.0156181
Heightened Def Con from 0.0156181 to 0.0156181
Heightened Def Con from 0.0156181 to 0.0156181
Heightened Def Con from 0.0156182 to 0.0156182
Heightened Def Con from 0.0156182 to 0.0156182
Heightened Def Con from 0.0156182 to 0.0156182
Heightened Def Con from 0.0156182 to 0.0156182
Heightened Def Con from 0.0156182 to 0.0156182
Heightened Def Con from 0.0156182 to 0.0156182
Heightened Def Con from 0.0156182 to 0.0156182
Heightened Def Con from 0.0156182 to 0.0156182
Heightened Def Con from 0.0156182 to 0.0156182
Heightened Def Con from 0.0156182 to 0.0156182
Heightened Def Con from 0.0156182 to 0.0156182
Heightened Def Con from 0.0156182 to 0.0156182
Heightened Def Con from 0.0156182 to 0.0156182
Heightened Def Con from 0.0156182 to 0.0156182
Heightened Def Con from 0.0157005 to 0.0157005
Heightened Def Con from 0.0157005 to 0.0157005
Heightened Def Con from 0.0157005 to 0.0157005
Heightened Def Con from 0.0157005 to 0.0157005
Heightened Def Con from 0.0157006 to 0.0157006
Heightened Def Con from 0.0157006 to 0.0157006
Heightened Def Con from 0.0157006 to 0.0157006
Heightened Def Con from 0.0157006 to 0.0157006
Heightened Def Con from 0.0157006 to 0.0157006
Heightened Def Con from 0.0157006 to 0.0157006
Heightened Def Con from 0.0157006 to 0.0157006
Heightened Def Con from 0.0157008 to 0.0157008
Heightened Def Con from 0.015701 to 0.015701
Heightened Def Con from 0.015701 to 0.015701
Heightened Def Con from 0.015701 to 0.015701
Heightened Def Con from 0.015701 to 0.015701
Heightened Def Con from 0.015701 to 0.015701
Heightened Def Con from 0.015701 to 0.015701
Heightened Def Con from 0.015701 to 0.015701
Heightened Def Con from 0.015701 to 0.015701
Heightened Def Con from 0.015701 to 0.015701
Heightened Def Con from 0.015701 to 0.015701
Heightened Def Con from 0.015701 to 0.015701
Heightened Def Con from 0.015702 to 0.015702
Heightened Def Con from 0.015702 to 0.015702
Heightened Def Con from 0.015702 to 0.015702
Heightened Def Con from 0.015702 to 0.015702
Heightened Def Con from 0.015702 to 0.015702
Heightened Def Con from 0.015702 to 0.015702
Heightened Def Con from 0.015702 to 0.015702
Heightened Def Con from 0.015702 to 0.015702
Heightened Def Con from 0.015702 to 0.015702
Heightened Def Con from 0.015702 to 0.015702
Heightened Def Con from 0.015702 to 0.015702
Heightened Def Con from 0.015702 to 0.015702
Heightened Def Con from 0.015702 to 0.015702
Heightened Def Con from 0.015702 to 0.015702
Heightened Def Con from 0.015702 to 0.015702
Heightened Def Con from 0.015702 to 0.015702
Heightened Def Con from 0.015702 to 0.015702
Heightened Def Con from 0.015702 to 0.015702
Heightened Def Con from 0.015702 to 0.015702
Heightened Def Con from 0.015702 to 0.015702
Heightened Def Con from 0.015702 to 0.015702
Heightened Def Con from 0.015702 to 0.015702
Heightened Def Con from 0.015702 to 0.015702
Heightened Def Con from 0.015702 to 0.015702
Heightened Def Con from 0.015702 to 0.015702
Heightened Def Con from 0.015702 to 0.015702
Heightened Def Con from 0.015702 to 0.015702
Heightened Def Con from 0.015702 to 0.015702
Heightened Def Con from 0.015702 to 0.015702
Heightened Def Con from 0.015702 to 0.015702
Heightened Def Con from 0.015702 to 0.015702
Heightened Def Con from 0.015702 to 0.015702
Heightened Def Con from 0.015702 to 0.015702
Heightened Def Con from 0.015702 to 0.015702
Heightened Def Con from 0.0157021 to 0.0157021
Heightened Def Con from 0.0157021 to 0.0157021
Heightened Def Con from 0.0157021 to 0.0157021
Heightened Def Con from 0.0157021 to 0.0157021
Heightened Def Con from 0.0157021 to 0.0157021
Heightened Def Con from 0.0157021 to 0.0157021
Heightened Def Con from 0.0157021 to 0.0157021
Heightened Def Con from 0.0157021 to 0.0157021
Heightened Def Con from 0.0157021 to 0.0157021
Heightened Def Con from 0.0157021 to 0.0157021
Heightened Def Con from 0.0157021 to 0.0157021
Heightened Def Con from 0.0157022 to 0.0157022
Heightened Def Con from 0.0157022 to 0.0157022
Heightened Def Con from 0.0157022 to 0.0157022
Heightened Def Con from 0.0157022 to 0.0157022
Heightened Def Con from 0.0157024 to 0.0157024
Heightened Def Con from 0.0157024 to 0.0157024
Heightened Def Con from 0.0157024 to 0.0157024
Heightened Def Con from 0.0157024 to 0.0157024
Heightened Def Con from 0.0157024 to 0.0157024
Heightened Def Con from 0.0157024 to 0.0157024
Heightened Def Con from 0.0157024 to 0.0157024
Heightened Def Con from 0.0157024 to 0.0157024
Heightened Def Con from 0.0157024 to 0.0157024
Heightened Def Con from 0.0157024 to 0.0157024
Heightened Def Con from 0.0157024 to 0.0157024
Heightened Def Con from 0.0157024 to 0.0157024
Heightened Def Con from 0.0157024 to 0.0157024
Heightened Def Con from 0.0157024 to 0.0157024
Heightened Def Con from 0.0157024 to 0.0157024
Heightened Def Con from 0.0157024 to 0.0157024
Heightened Def Con from 0.0157024 to 0.0157024
Heightened Def Con from 0.0157024 to 0.0157024
Heightened Def Con from 0.0157025 to 0.0157025
Heightened Def Con from 0.0157025 to 0.0157025
Heightened Def Con from 0.0157026 to 0.0157026
Heightened Def Con from 0.0157029 to 0.0157029
Heightened Def Con from 0.0157029 to 0.0157029
Heightened Def Con from 0.0157029 to 0.0157029
Heightened Def Con from 0.0157029 to 0.0157029
Heightened Def Con from 0.0157038 to 0.0157038
Heightened Def Con from 0.0157038 to 0.0157038
Heightened Def Con from 0.0157038 to 0.0157038
Heightened Def Con from 0.0157038 to 0.0157038
Heightened Def Con from 0.0157038 to 0.0157038
Heightened Def Con from 0.0157038 to 0.0157038
Heightened Def Con from 0.0157038 to 0.0157038
Heightened Def Con from 0.0157038 to 0.0157038
Heightened Def Con from 0.0157038 to 0.0157038
Heightened Def Con from 0.0157038 to 0.0157038
Heightened Def Con from 0.0157038 to 0.0157038
Heightened Def Con from 0.0157039 to 0.0157039
Heightened Def Con from 0.0157039 to 0.0157039
Heightened Def Con from 0.0157039 +to 0.0157039
Heightened Def Con from 0.0157039 to 0.0157039
Heightened Def Con from 0.0157039 to 0.0157039
Heightened Def Con from 0.0157039 to 0.0157039
Heightened Def Con from 0.0157039 to 0.0157039
Heightened Def Con from 0.0157039 to 0.0157039
Heightened Def Con from 0.0157039 +to 0.0157039
Heightened Def Con from 0.0157039 to 0.0157039
Heightened Def Con from 0.0157039 to 0.0157039
Heightened Def Con from 0.0157039 to 0.0157039
Heightened Def Con from 0.0157039 to 0.0157039
Heightened Def Con from 0.015707 to 0.015707
Heightened Def Con from 0.015707 to 0.015707
Heightened Def Con from 0.015707 to 0.015707
Heightened Def Con from 0.0157071 to 0.0157071
Heightened Def Con from 0.0157071 to 0.0157071
Heightened Def Con from 0.0157071 to 0.0157071
Heightened Def Con from 0.0157071 to 0.0157071
Heightened Def Con from 0.0157071 to 0.0157071
Heightened Def Con from 0.0157087 to 0.0157087
Heightened Def Con from 0.0157088 to 0.0157088
Heightened Def Con from 0.0157088 to 0.0157088
Heightened Def Con from 0.0157088 to 0.0157088
Heightened Def Con from 0.0157088 to 0.0157088
Heightened Def Con from 0.0157088 to 0.0157088
Heightened Def Con from 0.0157088 to 0.0157088
Heightened Def Con from 0.0157215 to 0.0157215
Heightened Def Con from 0.0157215 to 0.0157215
Heightened Def Con from 0.0157215 to 0.0157215
Heightened Def Con from 0.0157215 to 0.0157215
Heightened Def Con from 0.0157216 to 0.0157216
Heightened Def Con from 0.0157216 to 0.0157216
Heightened Def Con from 0.0157216 to 0.0157216
Heightened Def Con from 0.0157216 to 0.0157216
Heightened Def Con from 0.0157217 to 0.0157217
Heightened Def Con from 0.0157217 to 0.0157217
Heightened Def Con from 0.0157217 to 0.0157217
Heightened Def Con from 0.0157217 to 0.0157217
Heightened Def Con from 0.0157217 to 0.0157217
Heightened Def Con from 0.0157265 to 0.0157265
Heightened Def Con from 0.0157265 to 0.0157265
Heightened Def Con from 0.0157265 to 0.0157265
Heightened Def Con from 0.0157265 to 0.0157265
Heightened Def Con from 0.0157265 to 0.0157265
Heightened Def Con from 0.0157266 to 0.0157266
Heightened Def Con from 0.0157266 to 0.0157266
Heightened Def Con from 0.0157266 to 0.0157266
Heightened Def Con from 0.0157266 to 0.0157266
Heightened Def Con from 0.0157266 to 0.0157266
Heightened Def Con from 0.0157266 to 0.0157266
Heightened Def Con from 0.0157266 to 0.0157266
Heightened Def Con from 0.0157266 to 0.0157266
Heightened Def Con from 0.0157266 to 0.0157266
Heightened Def Con from 0.0157266 +to 0.0157266
Heightened Def Con from 0.0157266 to 0.0157266
Heightened Def Con from 0.0157266 to 0.0157266
Heightened Def Con from 0.0157266 to 0.0157266
Heightened Def Con from 0.0157266 to 0.0157266
Heightened Def Con from 0.0157289 to 0.0157289
Heightened Def Con from 0.0157289 to 0.0157289
Heightened Def Con from 0.0157289 to 0.0157289
Heightened Def Con from 0.0157289 to 0.0157289
Heightened Def Con from 0.0157289 to 0.0157289
Heightened Def Con from 0.015729 to 0.015729
Heightened Def Con from 0.015729 to 0.015729
Heightened Def Con from 0.015729 to 0.015729
Heightened Def Con from 0.015729 to 0.015729
Heightened Def Con from 0.015729 to 0.015729
Heightened Def Con from 0.015729 to 0.015729
Heightened Def Con from 0.015729 to 0.015729
Heightened Def Con from 0.015729 to 0.015729
Heightened Def Con from 0.015729 to 0.015729
Heightened Def Con from 0.015729 to 0.015729
Heightened Def Con from 0.015729 to 0.015729
Heightened Def Con from 0.015729 to 0.015729
Heightened Def Con from 0.015729 to 0.015729
Heightened Def Con from 0.015729 to 0.015729
Heightened Def Con from 0.0157292 to 0.0157292
Heightened Def Con from 0.0157303 to 0.0157303
Heightened Def Con from 0.015749 to 0.015749
Heightened Def Con from 0.015749 to 0.0157491
Heightened Def Con from 0.0157491 to 0.0157491
Heightened Def Con from 0.0157491 to 0.0157491
Heightened Def Con from 0.0157491 to 0.0157491
Heightened Def Con from 0.0157493 to 0.0157493
Heightened Def Con from 0.0157493 to 0.0157493
Heightened Def Con from 0.0157493 to 0.0157493
Heightened Def Con from 0.01575 to 0.01575
Heightened Def Con from 0.01575 to 0.01575
Heightened Def Con from 0.0157502 to 0.0157502
Heightened Def Con from 0.0157502 to 0.0157502
Heightened Def Con from 0.0157502 to 0.0157502
Heightened Def Con from 0.0157502 to 0.0157502
Heightened Def Con from 0.0157502 to 0.0157502
Heightened Def Con from 0.0157505 to 0.0157505
Heightened Def Con from 0.0157506 to 0.0157506
Heightened Def Con from 0.0157509 to 0.0157509
Heightened Def Con from 0.0157562 to 0.0157562
Heightened Def Con from 0.0157562 to 0.0157562
Heightened Def Con from 0.0157564 to 0.0157564
Heightened Def Con from 0.0159179 to 0.0159179
Heightened Def Con from 0.0159179 to 0.0159179
Heightened Def Con from 0.0159179 to 0.0159179
Heightened Def Con from 0.0159179 to 0.0159179
Heightened Def Con from 0.0159179 to 0.0159179
Heightened Def Con from 0.0159183 to 0.0159183
Heightened Def Con from 0.0159183 to 0.0159183
Heightened Def Con from 0.0159183 to 0.0159183
Heightened Def Con from 0.0159458 to 0.0159458
Heightened Def Con from 0.0159458 to 0.0159458
Heightened Def Con from 0.0159458 to 0.0159458
Heightened Def Con from 0.0159458 to 0.0159458
Heightened Def Con from 0.0159621 to 0.0159621
Heightened Def Con from 0.0159622 to 0.0159622
Heightened Def Con from 0.0160002 to 0.0160002
Heightened Def Con from 0.0160002 to 0.0160002
Heightened Def Con from 0.0160002 to 0.0160002
Heightened Def Con from 0.0160002 to 0.0160002
Heightened Def Con from 0.0160017 to 0.0160017
Heightened Def Con from 0.0160017 to 0.0160017
Heightened Def Con from 0.0160854 to 0.0160854
Heightened Def Con from 0.0160854 to 0.0160854
Heightened Def Con from 0.0160982 to 0.0160982
Heightened Def Con from 0.0160982 to 0.0160982
Heightened Def Con from 0.0161 to 0.0161
Heightened Def Con from 0.0163136 to 0.0163136
Heightened Def Con from 0.0163136 to 0.0163136
Heightened Def Con from 0.0163136 to 0.0163136
Heightened Def Con from 0.0163136 to 0.0163136
Heightened Def Con from 0.0163136 to 0.0163136
Heightened Def Con from 0.0163136 to 0.0163136
Heightened Def Con from 0.0163137 to 0.0163137
Heightened Def Con from 0.0163138 to 0.0163138
Heightened Def Con from 0.0163139 to 0.0163139
Heightened Def Con from 0.0163139 to 0.0163139
Heightened Def Con from 0.0163139 to 0.0163139
Heightened Def Con from 0.0163139 to 0.0163139
Heightened Def Con from 0.0163139 to 0.0163139
Heightened Def Con from 0.0163139 to 0.0163139
Heightened Def Con from 0.016314 to 0.016314
Heightened Def Con from 0.0163146 to 0.0163146
Heightened Def Con from 0.0163146 to 0.0163146
Heightened Def Con from 0.0163146 to 0.0163146
Heightened Def Con from 0.0163146 to 0.0163146
Heightened Def Con from 0.0163146 to 0.0163146
Heightened Def Con from 0.0163146 to 0.0163146
Heightened Def Con from 0.0163146 to 0.0163146
Heightened Def Con from 0.0163146 to 0.0163146
Heightened Def Con from 0.0163146 to 0.0163146
Heightened Def Con from 0.0163146 to 0.0163146
Heightened Def Con from 0.0163146 to 0.0163146
Heightened Def Con from 0.0163146 to 0.0163146
Heightened Def Con from 0.0163146 to 0.0163146
Heightened Def Con from 0.0163146 to 0.0163146
Heightened Def Con from 0.0163146 to 0.0163146
Heightened Def Con from 0.0163146 to 0.0163146
Heightened Def Con from 0.0163146 to 0.0163146
Heightened Def Con from 0.0163146 to 0.0163146
Heightened Def Con from 0.0163146 to 0.0163146
Heightened Def Con from 0.0163146 to 0.0163146
Heightened Def Con from 0.0163147 to 0.0163147
Heightened Def Con from 0.0165716 to 0.0165716
Heightened Def Con from 0.0165716 to 0.0165716
Heightened Def Con from 0.0166146 to 0.0166146
Heightened Def Con from 0.0166146 to 0.0166146
Heightened Def Con from 0.0166184 to 0.0166184
Heightened Def Con from 0.0166185 to 0.0166185
Heightened Def Con from 0.0166185 to 0.0166185
Heightened Def Con from 0.0166191 to 0.0166191
Heightened Def Con from 0.0166194 to 0.0166194
Heightened Def Con from 0.016622 to 0.016622
Heightened Def Con from 0.016622 to 0.016622
Heightened Def Con from 0.016622 to 0.016622
Heightened Def Con from 0.016622 to 0.016622
Heightened Def Con from 0.016622 to 0.016622
Heightened Def Con from 0.016622 to 0.016622
Heightened Def Con from 0.0166221 to 0.0166221
Heightened Def Con from 0.0166221 to 0.0166221
Heightened Def Con from 0.0254977 to 0.0254977
Heightened Def Con from 0.0254977 to 0.0254977
Heightened Def Con from 0.0254977 to 0.0254977
Heightened Def Con from 0.0254977 to 0.0254977
Heightened Def Con from 0.0254977 to 0.0254977
Heightened Def Con from 0.0254977 to 0.0254977
Heightened Def Con from 0.0254977 to 0.0254977
Heightened Def Con from 0.0254977 to 0.0254977
Heightened Def Con from 0.0254977 to 0.0254977
Heightened Def Con from 0.0254977 to 0.0254977
Heightened Def Con from 0.0254977 to 0.0254977
Heightened Def Con from 0.0254977 to 0.0254977
Heightened Def Con from 0.0254977 to 0.0254977
Heightened Def Con from 0.0254977 to 0.0254977
Heightened Def Con from 0.0254977 to 0.0254977
Heightened Def Con from 0.0254977 to 0.0254977
Heightened Def Con from 0.0254977 to 0.0254977
Heightened Def Con from 0.0254977 to 0.0254977
Heightened Def Con from 0.0254977 to 0.0254977
Heightened Def Con from 0.0254977 to 0.0254977
Heightened Def Con from 0.0254977 to 0.0254977
Heightened Def Con from 0.0254977 to 0.0254977
Heightened Def Con from 0.0254977 to 0.0254977
Heightened Def Con from 0.0254977 to 0.0254977
Heightened Def Con from 0.0254977 to 0.0254977
Heightened Def Con from 0.0254977 to 0.0254977
Heightened Def Con from 0.0254977 to 0.0254977
Heightened Def Con from 0.0254977 +to 0.0254977
Heightened Def Con from 0.0254977 to 0.0254977
Heightened Def Con from 0.0254977 to 0.0254977
Heightened Def Con from 0.0254977 to 0.0254977
Heightened Def Con from 0.0254977 to 0.0254977
Heightened Def Con from 0.0254977 to 0.0254977
Heightened Def Con from 0.0254977 to 0.0254977
Heightened Def Con from 0.0254977 to 0.0254977
Heightened Def Con from 0.0254977 to 0.0254977
Heightened Def Con from 0.0254977 to 0.0254977
Heightened Def Con from 0.0254977 to 0.0254977
Heightened Def Con from 0.0254977 to 0.0254977
Heightened Def Con from 0.0254977 to 0.0254977
Heightened Def Con from 0.0254977 to 0.0254978
Heightened Def Con from 0.0254978 to 0.0254978
Heightened Def Con from 0.0254978 to 0.0254978
Heightened Def Con from 0.0254978 to 0.0254978
Heightened Def Con from 0.0254981 to 0.0254981
Heightened Def Con from 0.0254981 to 0.0254981
Heightened Def Con from 0.0254982 to 0.0254982
Heightened Def Con from 0.0254982 to 0.0254982
Heightened Def Con from 0.0256002 to 0.0256002
Heightened Def Con from 0.0256002 to 0.0256002
Heightened Def Con from 0.0256002 to 0.0256002
Heightened Def Con from 0.0256005 to 0.0256005
Heightened Def Con from 0.025617 to 0.025617
Heightened Def Con from 0.025617 to 0.025617
Heightened Def Con from 0.0256172 to 0.0256172
Heightened Def Con from 0.0256172 to 0.0256172
Heightened Def Con from 0.0256172 to 0.0256172
Heightened Def Con from 0.0256172 to 0.0256172
Heightened Def Con from 0.0256172 to 0.0256172
Heightened Def Con from 0.0256176 to 0.0256176
Heightened Def Con from 0.0256176 to 0.0256176
Heightened Def Con from 0.0256176 to 0.0256176
Heightened Def Con from 0.0256176 to 0.0256176
Heightened Def Con from 0.0256176 to 0.0256177
Heightened Def Con from 0.0256177 to 0.0256177
Heightened Def Con from 0.0256177 to 0.0256177
Heightened Def Con from 0.0256177 to 0.0256177
Heightened Def Con from 0.0256177 to 0.0256177
Heightened Def Con from 0.0256177 to 0.0256177
Heightened Def Con from 0.0256182 to 0.0256182
Heightened Def Con from 0.0256182 to 0.0256182
Heightened Def Con from 0.0256182 to 0.0256182
Heightened Def Con from 0.0256182 to 0.0256182
Heightened Def Con from 0.0256182 to 0.0256182
Heightened Def Con from 0.0256182 to 0.0256182
Heightened Def Con from 0.0256182 to 0.0256182
Heightened Def Con from 0.0256184 to 0.0256184
Heightened Def Con from 0.0256184 to 0.0256184
Heightened Def Con from 0.0256184 to 0.0256184
Heightened Def Con from 0.0256184 to 0.0256184
Heightened Def Con from 0.0256184 to 0.0256184
Heightened Def Con from 0.0256184 to 0.0256184
Heightened Def Con from 0.0256184 to 0.0256184
Heightened Def Con from 0.0256184 to 0.0256184
Heightened Def Con from 0.0256184 to 0.0256184
Heightened Def Con from 0.0256184 to 0.0256184
Heightened Def Con from 0.0256184 to 0.0256184
Heightened Def Con from 0.0256184 to 0.0256184
Heightened Def Con from 0.0256184 to 0.0256184
Heightened Def Con from 0.0256184 to 0.0256184
Heightened Def Con from 0.0256184 to 0.0256184
Heightened Def Con from 0.0256184 to 0.0256184
Heightened Def Con from 0.0256184 to 0.0256184
Heightened Def Con from 0.0256184 to 0.0256184
Heightened Def Con from 0.0256184 to 0.0256184
Heightened Def Con from 0.0256184 to 0.0256184
Heightened Def Con from 0.0256184 to 0.0256184
Heightened Def Con from 0.0256186 to 0.0256186
Heightened Def Con from 0.0256188 to 0.0256188
Heightened Def Con from 0.0256188 to 0.0256188
Heightened Def Con from 0.0256188 to 0.0256188
Heightened Def Con from 0.0256188 to 0.0256188
Heightened Def Con from 0.0256188 to 0.0256188
Heightened Def Con from 0.0256189 to 0.0256189
Heightened Def Con from 0.0256189 to 0.0256189
Heightened Def Con from 0.0256189 to 0.0256189
Heightened Def Con from 0.0256189 to 0.0256189
Heightened Def Con from 0.0256189 to 0.0256189
Heightened Def Con from 0.0256189 +to 0.0256189
Heightened Def Con from 0.0256278 to 0.0256278
Heightened Def Con from 0.0256278 to 0.0256278
Heightened Def Con from 0.0256278 to 0.0256278
Heightened Def Con from 0.0256278 to 0.0256278
Heightened Def Con from 0.0256318 to 0.0256318
Heightened Def Con from 0.0256318 to 0.0256318
Heightened Def Con from 0.0256318 to 0.0256318
Heightened Def Con from 0.0256318 to 0.0256318
Heightened Def Con from 0.0256318 to 0.0256318
Heightened Def Con from 0.0256318 to 0.0256318
Heightened Def Con from 0.0256318 to 0.0256318
Heightened Def Con from 0.0256318 to 0.0256318
Heightened Def Con from 0.0256318 to 0.0256318
Heightened Def Con from 0.0256318 to 0.0256318
Heightened Def Con from 0.0256318 to 0.0256318
Heightened Def Con from 0.0256319 to 0.0256319
Heightened Def Con from 0.0256319 to 0.0256319
Heightened Def Con from 0.0256319 to 0.0256319
Heightened Def Con from 0.0256319 to 0.0256319
Heightened Def Con from 0.0256321 to 0.0256321
Heightened Def Con from 0.0256321 to 0.0256321
Heightened Def Con from 0.0256321 to 0.0256321
Heightened Def Con from 0.0256465 to 0.0256465
Heightened Def Con from 0.0256465 to 0.0256465
Heightened Def Con from 0.0256465 to 0.0256465
Heightened Def Con from 0.0256465 to 0.0256465
Heightened Def Con from 0.0256465 to 0.0256465
Heightened Def Con from 0.0256465 to 0.0256465
Heightened Def Con from 0.0256465 to 0.0256465
Heightened Def Con from 0.0256465 to 0.0256465
Heightened Def Con from 0.0256467 to 0.0256467
Heightened Def Con from 0.0256474 to 0.0256474
Heightened Def Con from 0.0256681 to 0.0256681
Heightened Def Con from 0.0256683 to 0.0256683
Heightened Def Con from 0.0256683 to 0.0256683
Heightened Def Con from 0.0256683 to 0.0256683
Heightened Def Con from 0.0256683 to 0.0256683
Heightened Def Con from 0.0256683 to 0.0256683
Heightened Def Con from 0.0256687 to 0.0256687
Heightened Def Con from 0.0256687 to 0.0256687
Heightened Def Con from 0.0256824 to 0.0256824
Heightened Def Con from 0.0256824 to 0.0256824
Heightened Def Con from 0.0256842 to 0.0256842
Heightened Def Con from 0.0256844 to 0.0256844
Heightened Def Con from 0.0256844 to 0.0256844
Heightened Def Con from 0.0256886 to 0.0256886
Heightened Def Con from 0.0256886 to 0.0256886
Heightened Def Con from 0.0256886 to 0.0256886
Heightened Def Con from 0.0256896 to 0.0256896
Heightened Def Con from 0.0256981 to 0.0256981
Heightened Def Con from 0.0256983 to 0.0256983
Heightened Def Con from 0.0260563 to 0.0260563
Heightened Def Con from 0.0260563 to 0.0260563
Heightened Def Con from 0.0260564 to 0.0260564
Heightened Def Con from 0.0260564 to 0.0260564
Heightened Def Con from 0.0260564 to 0.0260564
Heightened Def Con from 0.0260564 to 0.0260564
Heightened Def Con from 0.0260564 to 0.0260564
Heightened Def Con from 0.0260564 to 0.0260564
Heightened Def Con from 0.0260564 to 0.0260564
Heightened Def Con from 0.0260564 to 0.0260564
Heightened Def Con from 0.0260564 to 0.0260564
Heightened Def Con from 0.0260564 to 0.0260564
Heightened Def Con from 0.0260564 to 0.0260564
Heightened Def Con from 0.0260564 to 0.0260564
Heightened Def Con from 0.0260564 to 0.0260564
Heightened Def Con from 0.0260564 to 0.0260564
Heightened Def Con from 0.0260564 to 0.0260564
Heightened Def Con from 0.0260564 to 0.0260564
Heightened Def Con from 0.0260564 to 0.0260564
Heightened Def Con from 0.0260564 to 0.0260564
Heightened Def Con from 0.0260564 to 0.0260564
Heightened Def Con from 0.0260564 to 0.0260564
Heightened Def Con from 0.0260565 to 0.0260565
Heightened Def Con from 0.0260565 to 0.0260565
Heightened Def Con from 0.0260565 to 0.0260565
Heightened Def Con from 0.0260565 to 0.0260565
Heightened Def Con from 0.0260565 to 0.0260565
Heightened Def Con from 0.0260565 to 0.0260565
Heightened Def Con from 0.0260565 to 0.0260565
Heightened Def Con from 0.0260565 to 0.0260565
Heightened Def Con from 0.0260565 to 0.0260565
Heightened Def Con from 0.0260565 to 0.0260565
Heightened Def Con from 0.0260565 to 0.0260565
Heightened Def Con from 0.0260565 to 0.0260565
Heightened Def Con from 0.0260565 to 0.0260565
Heightened Def Con from 0.0260565 to 0.0260565
Heightened Def Con from 0.0260565 to 0.0260565
Heightened Def Con from 0.0260565 to 0.0260565
Heightened Def Con from 0.0260565 to 0.0260565
Heightened Def Con from 0.0260565 to 0.0260565
Heightened Def Con from 0.0260565 to 0.0260565
Heightened Def Con from 0.0260565 to 0.0260565
Heightened Def Con from 0.0260565 to 0.0260565
Heightened Def Con from 0.0260565 to 0.0260565
Heightened Def Con from 0.0260565 to 0.0260565
Heightened Def Con from 0.0260565 to 0.0260565
Heightened Def Con from 0.0260565 to 0.0260565
Heightened Def Con from 0.0260565 to 0.0260565
Heightened Def Con from 0.0260565 to 0.0260565
Heightened Def Con from 0.0260565 to 0.0260565
Heightened Def Con from 0.0260565 to 0.0260565
Heightened Def Con from 0.0260565 to 0.0260565
Heightened Def Con from 0.0260565 to 0.0260565
Heightened Def Con from 0.0260565 to 0.0260565
Heightened Def Con from 0.0260565 to 0.0260565
Heightened Def Con from 0.0260565 to 0.0260565
Heightened Def Con from 0.0260565 to 0.0260565
Heightened Def Con from 0.0260565 to 0.0260566
Heightened Def Con from 0.0260566 to 0.0260566
Heightened Def Con from 0.0260566 to 0.0260566
Heightened Def Con from 0.0260566 to 0.0260566
Heightened Def Con from 0.0260566 to 0.0260566
Heightened Def Con from 0.0260566 to 0.0260566
Heightened Def Con from 0.0260566 to 0.0260566
Heightened Def Con from 0.0260566 to 0.0260566
Heightened Def Con from 0.0260566 to 0.0260566
Heightened Def Con from 0.0260566 to 0.0260566
Heightened Def Con from 0.0260566 to 0.0260566
Heightened Def Con from 0.0260566 to 0.0260566
Heightened Def Con from 0.0260566 to 0.0260566
Heightened Def Con from 0.0260566 to 0.0260566
Heightened Def Con from 0.0260566 to 0.0260566
Heightened Def Con from 0.0260566 to 0.0260566
Heightened Def Con from 0.0260566 to 0.0260566
Heightened Def Con from 0.0260566 to 0.0260566
Heightened Def Con from 0.0260566 to 0.0260566
Heightened Def Con from 0.0260566 to 0.0260566
Heightened Def Con from 0.0260566 to 0.0260566
Heightened Def Con from 0.0260566 to 0.0260566
Heightened Def Con from 0.0260566 to 0.0260566
Heightened Def Con from 0.0260566 to 0.0260566
Heightened Def Con from 0.0260566 to 0.0260566
Heightened Def Con from 0.0260566 to 0.0260566
Heightened Def Con from 0.0260566 to 0.0260566
Heightened Def Con from 0.0260566 to 0.0260566
Heightened Def Con from 0.0260567 to 0.0260567
Heightened Def Con from 0.0260567 to 0.0260567
Heightened Def Con from 0.0260567 to 0.0260567
Heightened Def Con from 0.0260567 +to 0.0260567
Heightened Def Con from 0.0260567 to 0.0260567
Heightened Def Con from 0.0260567 to 0.0260567
Heightened Def Con from 0.0260567 to 0.0260567
Heightened Def Con from 0.0260567 to 0.0260567
Heightened Def Con from 0.0260567 to 0.0260567
Heightened Def Con from 0.0260567 to 0.0260567
Heightened Def Con from 0.0260567 to 0.0260567
Heightened Def Con from 0.0260567 to 0.0260567
Heightened Def Con from 0.0260567 to 0.0260567
Heightened Def Con from 0.0260567 to 0.0260567
Heightened Def Con from 0.0260567 to 0.0260567
Heightened Def Con from 0.0260567 to 0.0260567
Heightened Def Con from 0.0260652 to 0.0260652
Heightened Def Con from 0.0260652 to 0.0260652
Heightened Def Con from 0.0260652 to 0.0260652
Heightened Def Con from 0.0260653 to 0.0260653
Heightened Def Con from 0.0260653 to 0.0260653
Heightened Def Con from 0.0260653 to 0.0260653
Heightened Def Con from 0.0260653 to 0.0260653
Heightened Def Con from 0.0260653 to 0.0260653
Heightened Def Con from 0.0260654 to 0.0260654
Heightened Def Con from 0.0260654 to 0.0260654
Heightened Def Con from 0.0260654 to 0.0260654
Heightened Def Con from 0.0260686 to 0.0260686
Heightened Def Con from 0.0260687 to 0.0260687
Heightened Def Con from 0.0260687 to 0.0260687
Heightened Def Con from 0.0260688 to 0.0260688
Heightened Def Con from 0.0260689 to 0.0260689
Heightened Def Con from 0.0260689 to 0.0260689
Heightened Def Con from 0.0260735 to 0.0260735
Heightened Def Con from 0.0260736 to 0.0260736
Heightened Def Con from 0.0260736 to 0.0260736
Heightened Def Con from 0.0260737 to 0.0260737
Heightened Def Con from 0.0260737 to 0.0260737
Heightened Def Con from 0.0260737 to 0.0260737
Heightened Def Con from 0.0260737 to 0.0260737
Heightened Def Con from 0.0260737 to 0.0260737
Heightened Def Con from 0.0260737 to 0.0260737
Heightened Def Con from 0.0260737 to 0.0260737
Heightened Def Con from 0.0260737 to 0.0260737
Heightened Def Con from 0.0260737 to 0.0260737
Heightened Def Con from 0.0260737 to 0.0260737
Heightened Def Con from 0.0260737 to 0.0260737
Heightened Def Con from 0.0260737 to 0.0260737
Heightened Def Con from 0.0260737 to 0.0260737
Heightened Def Con from 0.0260737 to 0.0260737
Heightened Def Con from 0.0260737 to 0.0260737
Heightened Def Con from 0.0260739 to 0.0260739
Heightened Def Con from 0.0260739 to 0.0260739
Heightened Def Con from 0.0260739 to 0.0260739
Heightened Def Con from 0.0260796 to 0.0260796
Heightened Def Con from 0.0260796 to 0.0260796
Heightened Def Con from 0.0260796 to 0.0260796
Heightened Def Con from 0.0260796 to 0.0260796
Heightened Def Con from 0.0260796 to 0.0260796
Heightened Def Con from 0.0260796 to 0.0260796
Heightened Def Con from 0.0260797 to 0.0260797
Heightened Def Con from 0.0260797 to 0.0260797
Heightened Def Con from 0.0260797 to 0.0260797
Heightened Def Con from 0.0260797 to 0.0260797
Heightened Def Con from 0.0260797 to 0.0260797
Heightened Def Con from 0.0260797 to 0.0260797
Heightened Def Con from 0.0260797 to 0.0260797
Heightened Def Con from 0.0260797 to 0.0260797
Heightened Def Con from 0.0260798 to 0.0260798
Heightened Def Con from 0.0260798 to 0.0260798
Heightened Def Con from 0.0260798 to 0.0260798
Heightened Def Con from 0.0260798 to 0.0260798
Heightened Def Con from 0.0260798 to 0.0260798
Heightened Def Con from 0.0260798 to 0.0260798
Heightened Def Con from 0.0260798 to 0.0260798
Heightened Def Con from 0.0260798 to 0.0260798
Heightened Def Con from 0.0260798 to 0.0260798
Heightened Def Con from 0.0260798 to 0.0260798
Heightened Def Con from 0.0260798 to 0.0260798
Heightened Def Con from 0.0260798 to 0.0260798
Heightened Def Con from 0.0260799 to 0.0260799
Heightened Def Con from 0.0260799 to 0.0260799
Heightened Def Con from 0.0260801 to 0.0260801
Heightened Def Con from 0.0260801 to 0.0260801
Heightened Def Con from 0.0260801 to 0.0260801
Heightened Def Con from 0.0260801 to 0.0260801
Heightened Def Con from 0.0260801 to 0.0260801
Heightened Def Con from 0.0260801 to 0.0260801
Heightened Def Con from 0.0260812 to 0.0260812
Heightened Def Con from 0.0260812 to 0.0260812
Heightened Def Con from 0.0260812 to 0.0260812
Heightened Def Con from 0.0260812 to 0.0260812
Heightened Def Con from 0.0260813 to 0.0260813
Heightened Def Con from 0.0260813 to 0.0260813
Heightened Def Con from 0.0260813 to 0.0260813
Heightened Def Con from 0.0260813 to 0.0260813
Heightened Def Con from 0.0260814 to 0.0260814
Heightened Def Con from 0.0260814 to 0.0260814
Heightened Def Con from 0.0260814 to 0.0260814
Heightened Def Con from 0.0260814 to 0.0260814
Heightened Def Con from 0.0260814 to 0.0260814
Heightened Def Con from 0.0260818 to 0.0260818
Heightened Def Con from 0.0260818 to 0.0260818
Heightened Def Con from 0.0260818 to 0.0260818
Heightened Def Con from 0.0260818 to 0.0260818
Heightened Def Con from 0.0260818 to 0.0260818
Heightened Def Con from 0.0260818 to 0.0260818
Heightened Def Con from 0.0260818 to 0.0260818
Heightened Def Con from 0.0260819 to 0.026082
Heightened Def Con from 0.026082 to 0.026082
Heightened Def Con from 0.026082 to 0.026082
Heightened Def Con from 0.026082 to 0.026082
Heightened Def Con from 0.026082 to 0.026082
Heightened Def Con from 0.026082 +to 0.026082
Heightened Def Con from 0.026082 to 0.026082
Heightened Def Con from 0.026082 to 0.026082
Heightened Def Con from 0.026082 to 0.026082
Heightened Def Con from 0.026082 to 0.026082
Heightened Def Con from 0.026082 to 0.026082
Heightened Def Con from 0.026082 to 0.026082
Heightened Def Con from 0.026082 to 0.026082
Heightened Def Con from 0.026082 to 0.026082
Heightened Def Con from 0.026082 to 0.026082
Heightened Def Con from 0.026082 to 0.026082
Heightened Def Con from 0.026082 to 0.026082
Heightened Def Con from 0.026082 to 0.026082
Heightened Def Con from 0.026082 to 0.026082
Heightened Def Con from 0.026082 to 0.026082
Heightened Def Con from 0.026082 to 0.026082
Heightened Def Con from 0.026082 to 0.026082
Heightened Def Con from 0.026082 to 0.026082
Heightened Def Con from 0.026082 to 0.026082
Heightened Def Con from 0.026082 to 0.026082
Heightened Def Con from 0.026082 to 0.026082
Heightened Def Con from 0.026082 to 0.026082
Heightened Def Con from 0.026082 to 0.026082
Heightened Def Con from 0.026082 to 0.026082
Heightened Def Con from 0.026082 to 0.026082
Heightened Def Con from 0.026082 to 0.026082
Heightened Def Con from 0.026082 to 0.026082
Heightened Def Con from 0.026082 to 0.026082
Heightened Def Con from 0.026082 to 0.026082
Heightened Def Con from 0.026082 to 0.026082
Heightened Def Con from 0.026082 to 0.026082
Heightened Def Con from 0.026082 to 0.026082
Heightened Def Con from 0.026082 to 0.026082
Heightened Def Con from 0.026082 to 0.026082
Heightened Def Con from 0.026082 to 0.026082
Heightened Def Con from 0.026082 to 0.026082
Heightened Def Con from 0.026082 to 0.026082
Heightened Def Con from 0.026082 to 0.026082
Heightened Def Con from 0.026082 to 0.026082
Heightened Def Con from 0.026082 to 0.026082
Heightened Def Con from 0.026082 to 0.026082
Heightened Def Con from 0.026082 to 0.026082
Heightened Def Con from 0.026082 to 0.026082
Heightened Def Con from 0.026082 to 0.026082
Heightened Def Con from 0.026082 to 0.026082
Heightened Def Con from 0.0260821 to 0.0260821
Heightened Def Con from 0.0260821 to 0.0260821
Heightened Def Con from 0.0260821 to 0.0260821
Heightened Def Con from 0.0260821 to 0.0260821
Heightened Def Con from 0.0260821 to 0.0260821
Heightened Def Con from 0.0260821 to 0.0260821
Heightened Def Con from 0.0260821 to 0.0260821
Heightened Def Con from 0.0260821 to 0.0260821
Heightened Def Con from 0.0260821 to 0.0260821
Heightened Def Con from 0.0260821 to 0.0260821
Heightened Def Con from 0.0260821 to 0.0260821
Heightened Def Con from 0.0260823 to 0.0260823
Heightened Def Con from 0.0260825 to 0.0260825
Heightened Def Con from 0.0260825 to 0.0260825
Heightened Def Con from 0.0260825 to 0.0260825
Heightened Def Con from 0.0260825 to 0.0260825
Heightened Def Con from 0.0260825 to 0.0260825
Heightened Def Con from 0.0260825 to 0.0260825
Heightened Def Con from 0.0260825 to 0.0260825
Heightened Def Con from 0.0260825 to 0.0260825
Heightened Def Con from 0.0260825 to 0.0260825
Heightened Def Con from 0.0260826 to 0.0260826
Heightened Def Con from 0.0260826 to 0.0260826
Heightened Def Con from 0.0260827 to 0.0260827
Heightened Def Con from 0.0260827 to 0.0260827
Heightened Def Con from 0.0260833 to 0.0260833
Heightened Def Con from 0.0260833 to 0.0260833
Heightened Def Con from 0.0260833 to 0.0260833
Heightened Def Con from 0.0260833 to 0.0260833
Heightened Def Con from 0.0260833 to 0.0260833
Heightened Def Con from 0.0260833 to 0.0260833
Heightened Def Con from 0.0260833 to 0.0260833
Heightened Def Con from 0.0260833 to 0.0260833
Heightened Def Con from 0.0260833 to 0.0260833
Heightened Def Con from 0.0260833 to 0.0260833
Heightened Def Con from 0.0260833 to 0.0260833
Heightened Def Con from 0.0260833 to 0.0260833
Heightened Def Con from 0.0260835 to 0.0260835
Heightened Def Con from 0.0260836 to 0.0260836
Heightened Def Con from 0.0260836 to 0.0260836
Heightened Def Con from 0.0260836 to 0.0260836
Heightened Def Con from 0.0260836 to 0.0260836
Heightened Def Con from 0.0260836 to 0.0260836
Heightened Def Con from 0.0260836 to 0.0260836
Heightened Def Con from 0.0260836 to 0.0260836
Heightened Def Con from 0.0260836 to 0.0260836
Heightened Def Con from 0.0260836 to 0.0260836
Heightened Def Con from 0.0260836 to 0.0260836
Heightened Def Con from 0.0260836 to 0.0260836
Heightened Def Con from 0.0260836 to 0.0260836
Heightened Def Con from 0.0260837 +to 0.0260837
Heightened Def Con from 0.0260837 to 0.0260837
Heightened Def Con from 0.0260837 to 0.0260837
Heightened Def Con from 0.0260837 to 0.0260837
Heightened Def Con from 0.0260837 to 0.0260837
Heightened Def Con from 0.0260837 to 0.0260837
Heightened Def Con from 0.0260837 to 0.0260837
Heightened Def Con from 0.0260837 to 0.0260837
Heightened Def Con from 0.0260837 to 0.0260837
Heightened Def Con from 0.0260837 to 0.0260837
Heightened Def Con from 0.0260838 to 0.0260838
Heightened Def Con from 0.0260838 to 0.0260838
Heightened Def Con from 0.0260838 to 0.0260838
Heightened Def Con from 0.0260838 to 0.0260838
Heightened Def Con from 0.0260843 to 0.0260843
Heightened Def Con from 0.0260856 to 0.0260856
Heightened Def Con from 0.0260856 to 0.0260856
Heightened Def Con from 0.0260856 to 0.0260857
Heightened Def Con from 0.0260857 to 0.0260857
Heightened Def Con from 0.0260857 +to 0.0260857
Heightened Def Con from 0.0260857 to 0.0260857
Heightened Def Con from 0.0260857 to 0.0260857
Heightened Def Con from 0.0260857 to 0.0260857
Heightened Def Con from 0.0260857 to 0.0260857
Heightened Def Con from 0.0260857 to 0.0260857
Heightened Def Con from 0.0260857 to 0.0260857
Heightened Def Con from 0.0260857 to 0.0260857
Heightened Def Con from 0.0260857 to 0.0260857
Heightened Def Con from 0.0260857 to 0.0260857
Heightened Def Con from 0.0260857 to 0.0260857
Heightened Def Con from 0.0260857 to 0.0260857
Heightened Def Con from 0.0260857 to 0.0260857
Heightened Def Con from 0.0260857 to 0.0260857
Heightened Def Con from 0.0260857 to 0.0260857
Heightened Def Con from 0.0260857 to 0.0260857
Heightened Def Con from 0.0260857 to 0.0260857
Heightened Def Con from 0.0260857 to 0.0260857
Heightened Def Con from 0.0260857 to 0.0260857
Heightened Def Con from 0.0260857 to 0.0260857
Heightened Def Con from 0.0260857 to 0.0260857
Heightened Def Con from 0.0260857 to 0.0260857
Heightened Def Con from 0.0260857 to 0.0260857
Heightened Def Con from 0.0260857 to 0.0260857
Heightened Def Con from 0.0260857 to 0.0260857
Heightened Def Con from 0.0260857 to 0.0260857
Heightened Def Con from 0.0260857 to 0.0260857
Heightened Def Con from 0.0260858 to 0.0260858
Heightened Def Con from 0.0260858 to 0.0260858
Heightened Def Con from 0.0260858 to 0.0260858
Heightened Def Con from 0.0260858 to 0.0260858
Heightened Def Con from 0.0260858 to 0.0260858
Heightened Def Con from 0.0260858 to 0.0260858
Heightened Def Con from 0.0260858 to 0.0260858
Heightened Def Con from 0.0260858 to 0.0260858
Heightened Def Con from 0.0260858 to 0.0260858
Heightened Def Con from 0.0260858 to 0.0260858
Heightened Def Con from 0.0260858 to 0.0260858
Heightened Def Con from 0.0260858 to 0.0260858
Heightened Def Con from 0.0260858 to 0.0260858
Heightened Def Con from 0.0260858 to 0.0260858
Heightened Def Con from 0.0260858 to 0.0260858
Heightened Def Con from 0.0260858 to 0.0260858
Heightened Def Con from 0.0260858 to 0.0260858
Heightened Def Con from 0.0260858 to 0.0260858
Heightened Def Con from 0.0260858 to 0.0260858
Heightened Def Con from 0.0260858 to 0.0260858
Heightened Def Con from 0.0260858 to 0.0260858
Heightened Def Con from 0.0260858 to 0.0260858
Heightened Def Con from 0.0260858 to 0.0260858
Heightened Def Con from 0.0260858 to 0.0260858
Heightened Def Con from 0.0260858 to 0.0260858
Heightened Def Con from 0.0260858 to 0.0260858
Heightened Def Con from 0.0260858 to 0.0260858
Heightened Def Con from 0.0260858 to 0.0260858
Heightened Def Con from 0.0260858 to 0.0260858
Heightened Def Con from 0.0260858 to 0.0260858
Heightened Def Con from 0.0260858 to 0.0260858
Heightened Def Con from 0.0260859 to 0.0260859
Heightened Def Con from 0.0260859 to 0.0260859
Heightened Def Con from 0.0260859 to 0.0260859
Heightened Def Con from 0.0260859 to 0.0260859
Heightened Def Con from 0.0260878 to 0.0260878
Heightened Def Con from 0.0260878 to 0.0260878
Heightened Def Con from 0.0260879 to 0.0260879
Heightened Def Con from 0.0260879 to 0.0260879
Heightened Def Con from 0.0260879 to 0.0260879
Heightened Def Con from 0.0260879 to 0.0260879
Heightened Def Con from 0.0260879 +to 0.0260879
Heightened Def Con from 0.0260879 to 0.0260879
Heightened Def Con from 0.0260879 to 0.0260879
Heightened Def Con from 0.026088 to 0.026088
Heightened Def Con from 0.026088 to 0.026088
Heightened Def Con from 0.026088 to 0.026088
Heightened Def Con from 0.026088 +to 0.026088
Heightened Def Con from 0.026088 +to 0.026088
Heightened Def Con from 0.026088 to 0.026088
Heightened Def Con from 0.026088 to 0.026088
Heightened Def Con from 0.026088 to 0.026088
Heightened Def Con from 0.026088 to 0.026088
Heightened Def Con from 0.026088 to 0.026088
Heightened Def Con from 0.026088 to 0.026088
Heightened Def Con from 0.026088 to 0.026088
Heightened Def Con from 0.026088 to 0.026088
Heightened Def Con from 0.026088 to 0.026088
Heightened Def Con from 0.026088 to 0.0260881
Heightened Def Con from 0.0260881 to 0.0260881
Heightened Def Con from 0.0260881 to 0.0260881
Heightened Def Con from 0.0260881 to 0.0260881
Heightened Def Con from 0.0260881 to 0.0260881
Heightened Def Con from 0.0260881 to 0.0260881
Heightened Def Con from 0.0260881 to 0.0260881
Heightened Def Con from 0.0260881 to 0.0260881
Heightened Def Con from 0.0260881 to 0.0260881
Heightened Def Con from 0.026094 to 0.026094
Heightened Def Con from 0.0260955 to 0.0260955
Heightened Def Con from 0.0260955 to 0.0260955
Heightened Def Con from 0.0260955 to 0.0260955
Heightened Def Con from 0.0260955 to 0.0260955
Heightened Def Con from 0.0260955 to 0.0260955
Heightened Def Con from 0.0260955 to 0.0260955
Heightened Def Con from 0.0260955 to 0.0260955
Heightened Def Con from 0.0260955 to 0.0260955
Heightened Def Con from 0.0260956 to 0.0260956
Heightened Def Con from 0.0260956 to 0.0260956
Heightened Def Con from 0.0260956 to 0.0260956
Heightened Def Con from 0.0260956 to 0.0260956
Heightened Def Con from 0.0260956 to 0.0260956
Heightened Def Con from 0.0260956 to 0.0260956
Heightened Def Con from 0.0260961 to 0.0260961
Heightened Def Con from 0.0260965 to 0.0260965
Heightened Def Con from 0.0260965 to 0.0260965
Heightened Def Con from 0.0260977 to 0.0260977
Heightened Def Con from 0.0260977 to 0.0260977
Heightened Def Con from 0.0260978 to 0.0260978
Heightened Def Con from 0.0260978 +to 0.0260978
Heightened Def Con from 0.0260978 to 0.0260978
Heightened Def Con from 0.0260978 to 0.0260978
Heightened Def Con from 0.0260978 to 0.0260978
Heightened Def Con from 0.0260978 to 0.0260978
Heightened Def Con from 0.0260978 to 0.0260978
Heightened Def Con from 0.0260978 to 0.0260978
Heightened Def Con from 0.0260978 to 0.0260978
Heightened Def Con from 0.0260978 to 0.0260978
Heightened Def Con from 0.0260979 to 0.0260979
Heightened Def Con from 0.0260979 to 0.0260979
Heightened Def Con from 0.0260979 to 0.0260979
Heightened Def Con from 0.0260979 +to 0.0260979
Heightened Def Con from 0.0260979 to 0.0260979
Heightened Def Con from 0.0260979 to 0.0260979
Heightened Def Con from 0.0260979 to 0.0260979
Heightened Def Con from 0.0260979 to 0.0260979
Heightened Def Con from 0.0260979 to 0.0260979
Heightened Def Con from 0.0260979 to 0.0260979
Heightened Def Con from 0.0260979 to 0.0260979
Heightened Def Con from 0.026098 to 0.026098
Heightened Def Con from 0.026098 to 0.026098
Heightened Def Con from 0.026098 to 0.026098
Heightened Def Con from 0.026098 to 0.026098
Heightened Def Con from 0.026098 to 0.026098
Heightened Def Con from 0.026098 to 0.026098
Heightened Def Con from 0.026098 to 0.026098
Heightened Def Con from 0.026098 to 0.026098
Heightened Def Con from 0.026098 to 0.026098
Heightened Def Con from 0.026098 to 0.026098
Heightened Def Con from 0.026098 to 0.026098
Heightened Def Con from 0.026098 to 0.026098
Heightened Def Con from 0.026098 to 0.026098
Heightened Def Con from 0.026098 to 0.026098
Heightened Def Con from 0.026098 to 0.026098
Heightened Def Con from 0.026098 to 0.026098
Heightened Def Con from 0.026098 to 0.026098
Heightened Def Con from 0.026098 to 0.026098
Heightened Def Con from 0.026098 to 0.026098
Heightened Def Con from 0.026098 to 0.026098
Heightened Def Con from 0.0260981 to 0.0260981
Heightened Def Con from 0.0260981 to 0.0260981
Heightened Def Con from 0.0260981 to 0.0260981
Heightened Def Con from 0.0260981 to 0.0260981
Heightened Def Con from 0.0260981 to 0.0260981
Heightened Def Con from 0.0260981 to 0.0260981
Heightened Def Con from 0.0260981 to 0.0260981
Heightened Def Con from 0.0260984 to 0.0260984
Heightened Def Con from 0.0260984 to 0.0260984
Heightened Def Con from 0.0260984 to 0.0260984
Heightened Def Con from 0.0260984 to 0.0260984
Heightened Def Con from 0.0260984 to 0.0260984
Heightened Def Con from 0.0260984 to 0.0260984
Heightened Def Con from 0.0260984 to 0.0260985
Heightened Def Con from 0.0260985 to 0.0260985
Heightened Def Con from 0.0260985 to 0.0260985
Heightened Def Con from 0.0260985 to 0.0260985
Heightened Def Con from 0.0260985 to 0.0260985
Heightened Def Con from 0.0260985 to 0.0260985
Heightened Def Con from 0.0260985 to 0.0260985
Heightened Def Con from 0.0260985 to 0.0260985
Heightened Def Con from 0.0260985 to 0.0260985
Heightened Def Con from 0.0260985 to 0.0260985
Heightened Def Con from 0.0260985 to 0.0260985
Heightened Def Con from 0.0260985 to 0.0260985
Heightened Def Con from 0.0260985 +to 0.0260985
Heightened Def Con from 0.0260985 to 0.0260985
Heightened Def Con from 0.0260985 to 0.0260985
Heightened Def Con from 0.0260985 to 0.0260985
Heightened Def Con from 0.0260985 to 0.0260985
Heightened Def Con from 0.0260985 to 0.0260985
Heightened Def Con from 0.0260985 to 0.0260985
Heightened Def Con from 0.0260985 to 0.0260985
Heightened Def Con from 0.0260985 to 0.0260985
Heightened Def Con from 0.0260985 to 0.0260985
Heightened Def Con from 0.0260985 to 0.0260985
Heightened Def Con from 0.0260985 to 0.0260986
Heightened Def Con from 0.0260986 to 0.0260986
Heightened Def Con from 0.0260986 to 0.0260986
Heightened Def Con from 0.0260986 to 0.0260986
Heightened Def Con from 0.0260986 to 0.0260986
Heightened Def Con from 0.0260986 to 0.0260986
Heightened Def Con from 0.0260986 to 0.0260986
Heightened Def Con from 0.0260986 to 0.0260986
Heightened Def Con from 0.0260986 to 0.0260986
Heightened Def Con from 0.0260986 to 0.0260986
Heightened Def Con from 0.0260986 to 0.0260986
Heightened Def Con from 0.0260986 to 0.0260986
Heightened Def Con from 0.0260986 +to 0.0260986
Heightened Def Con from 0.0260986 to 0.0260986
Heightened Def Con from 0.0260986 to 0.0260986
Heightened Def Con from 0.0260986 to 0.0260986
Heightened Def Con from 0.0260986 to 0.0260986
Heightened Def Con from 0.0260986 to 0.0260986
Heightened Def Con from 0.0260986 to 0.0260986
Heightened Def Con from 0.0260986 to 0.0260986
Heightened Def Con from 0.0260986 to 0.0260986
Heightened Def Con from 0.0260986 to 0.0260986
Heightened Def Con from 0.0260987 to 0.0260987
Heightened Def Con from 0.0260987 +to 0.0260987
Heightened Def Con from 0.0260987 to 0.0260987
Heightened Def Con from 0.0260988 to 0.0260988
Heightened Def Con from 0.0260988 to 0.0260988
Heightened Def Con from 0.0260988 to 0.0260988
Heightened Def Con from 0.0260988 to 0.0260988
Heightened Def Con from 0.0260988 to 0.0260988
Heightened Def Con from 0.0260988 to 0.0260988
Heightened Def Con from 0.0260988 to 0.0260988
Heightened Def Con from 0.0260988 to 0.0260988
Heightened Def Con from 0.0260988 to 0.0260988
Heightened Def Con from 0.0260988 to 0.0260988
Heightened Def Con from 0.0260988 to 0.0260988
Heightened Def Con from 0.0260989 to 0.0260989
Heightened Def Con from 0.0260989 to 0.0260989
Heightened Def Con from 0.0260989 to 0.0260989
Heightened Def Con from 0.0260989 to 0.0260989
Heightened Def Con from 0.0260989 to 0.0260989
[...]
Heightened Def Con from 0.146406 to 0.146406
Heightened Def Con from 0.146406 to 0.146406
Heightened Def Con from 0.146406 to 0.146406
Heightened Def Con from 0.146406 to 0.146406
Heightened Def Con from 0.146406 to 0.146406
Heightened Def Con from 0.146406 +to 0.146406
Heightened Def Con from 0.146406 to 0.146406
Heightened Def Con from 0.146406 to 0.146406
Heightened Def Con from 0.146406 to 0.146406
Heightened Def Con from 0.146406 to 0.146406
Heightened Def Con from 0.146406 to 0.146406
Heightened Def Con from 0.146406 to 0.146406
Heightened Def Con from 0.146406 +to 0.146406
Heightened Def Con from 0.146406 to 0.146406
Heightened Def Con from 0.146406 to 0.146406
Heightened Def Con from 0.146406 +to 0.146406
Heightened Def Con from 0.146406 to 0.146406
Heightened Def Con from 0.146407 to 0.146407
Heightened Def Con from 0.146407 to 0.146407
Heightened Def Con from 0.146407 to 0.146407
Heightened Def Con from 0.146407 to 0.146407
Heightened Def Con from 0.146407 to 0.146407
Heightened Def Con from 0.146407 +to 0.146407
Heightened Def Con from 0.146407 to 0.146407
Heightened Def Con from 0.146407 to 0.146407
Heightened Def Con from 0.146407 to 0.146407
Heightened Def Con from 0.146407 to 0.146407
Heightened Def Con from 0.146407 to 0.146407
Heightened Def Con from 0.146407 to 0.146407
Heightened Def Con from 0.146407 to 0.146407
Heightened Def Con from 0.146408 to 0.146408
Heightened Def Con from 0.146408 to 0.146408
Heightened Def Con from 0.146408 to 0.146408
Heightened Def Con from 0.146408 to 0.146408
Heightened Def Con from 0.146408 +to 0.146408
Heightened Def Con from 0.146408 +to 0.146408
Heightened Def Con from 0.146408 to 0.146408
Heightened Def Con from 0.146408 to 0.146408
Heightened Def Con from 0.146408 to 0.146408
Heightened Def Con from 0.146408 to 0.146408
Heightened Def Con from 0.146408 to 0.146408
Heightened Def Con from 0.146408 to 0.146408
Heightened Def Con from 0.146408 to 0.146408
Heightened Def Con from 0.146408 to 0.146408
Heightened Def Con from 0.146408 to 0.146408
Heightened Def Con from 0.146408 to 0.146408
Heightened Def Con from 0.146408 to 0.146408
Heightened Def Con from 0.146408 to 0.146408
Heightened Def Con from 0.146408 to 0.146408
Heightened Def Con from 0.146408 to 0.146408
Heightened Def Con from 0.146408 to 0.146408
Heightened Def Con from 0.146408 to 0.146408
Heightened Def Con from 0.146408 to 0.146408
Heightened Def Con from 0.146408 to 0.146408
Heightened Def Con from 0.146408 to 0.146408
Heightened Def Con from 0.146408 to 0.146408
Heightened Def Con from 0.146408 to 0.146408
Heightened Def Con from 0.146408 to 0.146408
Heightened Def Con from 0.146408 to 0.146408
Heightened Def Con from 0.146408 to 0.146408
Heightened Def Con from 0.146408 to 0.146408
Heightened Def Con from 0.146408 +to 0.146408
Heightened Def Con from 0.146408 to 0.146408
Heightened Def Con from 0.146408 to 0.146408
Heightened Def Con from 0.146408 +to 0.146408
Heightened Def Con from 0.146408 to 0.146408
Heightened Def Con from 0.146408 to 0.146408
Heightened Def Con from 0.146408 to 0.146408
Heightened Def Con from 0.146408 to 0.146408
Heightened Def Con from 0.146408 to 0.146408
Heightened Def Con from 0.146408 to 0.146408
Heightened Def Con from 0.146408 to 0.146408
Heightened Def Con from 0.146408 to 0.146408
Heightened Def Con from 0.146408 to 0.146408
Heightened Def Con from 0.146408 to 0.146408
Heightened Def Con from 0.146408 to 0.146408
Heightened Def Con from 0.146408 ++to 0.146408
Heightened Def Con from 0.146408 to 0.146408
Heightened Def Con from 0.146408 to 0.146408
Heightened Def Con from 0.146408 to 0.146408
Heightened Def Con from 0.146408 to 0.146408
Heightened Def Con from 0.146409 to 0.146409
Heightened Def Con from 0.146409 to 0.146409
Heightened Def Con from 0.146409 to 0.146409
Heightened Def Con from 0.146409 to 0.146409
Heightened Def Con from 0.146409 to 0.146409
Heightened Def Con from 0.146409 to 0.146409
Heightened Def Con from 0.146409 to 0.146409
Heightened Def Con from 0.146409 to 0.146409
Heightened Def Con from 0.146409 to 0.146409
Heightened Def Con from 0.146409 to 0.146409
Heightened Def Con from 0.146409 to 0.146409
Heightened Def Con from 0.146409 to 0.146409
Heightened Def Con from 0.146409 to 0.146409
Heightened Def Con from 0.146409 to 0.146409
Heightened Def Con from 0.146409 to 0.146409
Heightened Def Con from 0.146409 to 0.146409
Heightened Def Con from 0.146409 +to 0.146409
Heightened Def Con from 0.146409 to 0.146409
Heightened Def Con from 0.146409 +to 0.146409
Heightened Def Con from 0.146409 to 0.146409
Heightened Def Con from 0.146409 to 0.146409
Heightened Def Con from 0.146409 +to 0.146409
Heightened Def Con from 0.146409 to 0.146409
Heightened Def Con from 0.146409 to 0.146409
Heightened Def Con from 0.146409 +to 0.146409
Heightened Def Con from 0.146409 to 0.146409
Heightened Def Con from 0.146409 +to 0.146409
Heightened Def Con from 0.146409 to 0.146409
Heightened Def Con from 0.146409 to 0.146409
Heightened Def Con from 0.146409 to 0.146409
Heightened Def Con from 0.146409 to 0.146409
Heightened Def Con from 0.146409 to 0.146409
Heightened Def Con from 0.146409 to 0.146409
Heightened Def Con from 0.146409 to 0.146409
Heightened Def Con from 0.146409 to 0.146409
Heightened Def Con from 0.146409 to 0.146409
Heightened Def Con from 0.146409 to 0.146409
Heightened Def Con from 0.146409 to 0.146409
Heightened Def Con from 0.146409 to 0.146409
Heightened Def Con from 0.146409 to 0.146409
Heightened Def Con from 0.146409 to 0.146409
Heightened Def Con from 0.146409 to 0.146409
Heightened Def Con from 0.146409 +to 0.146409
Heightened Def Con from 0.146409 to 0.146409
Heightened Def Con from 0.146409 to 0.146409
Heightened Def Con from 0.146409 to 0.146409
Heightened Def Con from 0.146409 to 0.146409
Heightened Def Con from 0.146409 +to 0.146409
Heightened Def Con from 0.146409 to 0.146409
Heightened Def Con from 0.146409 to 0.146409
Heightened Def Con from 0.146409 to 0.146409
Heightened Def Con from 0.146409 to 0.146409
Heightened Def Con from 0.146409 +to 0.146409
Heightened Def Con from 0.146409 to 0.146409
Heightened Def Con from 0.146409 to 0.146409
Heightened Def Con from 0.146409 to 0.146409
Heightened Def Con from 0.146409 to 0.146409
Heightened Def Con from 0.146409 to 0.146409
Heightened Def Con from 0.146409 to 0.146409
Heightened Def Con from 0.146409 to 0.146409
Heightened Def Con from 0.146409 to 0.146409
Heightened Def Con from 0.146409 to 0.146409
Heightened Def Con from 0.146409 +to 0.146409
Heightened Def Con from 0.146409 to 0.146409
Heightened Def Con from 0.14641 to 0.14641
Heightened Def Con from 0.14641 to 0.14641
Heightened Def Con from 0.14641 to 0.14641
Heightened Def Con from 0.14641 to 0.14641
Heightened Def Con from 0.14641 to 0.14641
Heightened Def Con from 0.14641 +to 0.14641
Heightened Def Con from 0.14641 to 0.14641
Heightened Def Con from 0.14641 to 0.14641
Heightened Def Con from 0.14641 to 0.14641
Heightened Def Con from 0.14641 to 0.14641
Heightened Def Con from 0.14641 to 0.14641
Heightened Def Con from 0.14641 to 0.14641
Heightened Def Con from 0.14641 to 0.14641
Heightened Def Con from 0.14641 to 0.14641
Heightened Def Con from 0.14641 to 0.14641
Heightened Def Con from 0.14641 to 0.14641
Heightened Def Con from 0.14641 to 0.14641
Heightened Def Con from 0.14641 to 0.14641
Heightened Def Con from 0.14641 to 0.14641
Heightened Def Con from 0.14641 to 0.14641
Heightened Def Con from 0.14641 to 0.14641
Heightened Def Con from 0.14641 to 0.14641
Heightened Def Con from 0.14641 to 0.14641
Heightened Def Con from 0.14641 to 0.14641
Heightened Def Con from 0.14641 to 0.14641
Heightened Def Con from 0.14641 +to 0.14641
Heightened Def Con from 0.14641 to 0.14641
Heightened Def Con from 0.14641 to 0.14641
Heightened Def Con from 0.14641 +to 0.14641
Heightened Def Con from 0.14641 to 0.14641
Heightened Def Con from 0.14641 to 0.14641
Heightened Def Con from 0.14641 to 0.14641
Heightened Def Con from 0.14641 to 0.14641
Heightened Def Con from 0.14641 to 0.14641
Heightened Def Con from 0.14641 to 0.14641
Heightened Def Con from 0.14641 to 0.14641
Heightened Def Con from 0.14641 to 0.14641
Heightened Def Con from 0.14641 to 0.14641
Heightened Def Con from 0.14641 to 0.14641
Heightened Def Con from 0.14641 to 0.14641
Heightened Def Con from 0.14641 to 0.14641
Heightened Def Con from 0.14641 to 0.14641
Heightened Def Con from 0.14641 to 0.14641
Heightened Def Con from 0.14641 to 0.14641
Heightened Def Con from 0.14641 to 0.14641
Heightened Def Con from 0.14641 to 0.14641
Heightened Def Con from 0.14641 to 0.14641
Heightened Def Con from 0.14641 to 0.14641
Heightened Def Con from 0.14641 to 0.14641
Heightened Def Con from 0.14641 to 0.14641
Heightened Def Con from 0.14641 to 0.14641
Heightened Def Con from 0.14641 to 0.14641
Heightened Def Con from 0.14641 to 0.14641
Heightened Def Con from 0.14641 to 0.14641
Heightened Def Con from 0.14643 to 0.14643
Heightened Def Con from 0.14643 to 0.14643
Heightened Def Con from 0.14643 to 0.14643
Heightened Def Con from 0.14643 to 0.14643
Heightened Def Con from 0.14643 to 0.14643
Heightened Def Con from 0.14643 to 0.14643
Heightened Def Con from 0.14643 to 0.14643
Heightened Def Con from 0.14643 to 0.14643
Heightened Def Con from 0.14643 to 0.14643
Heightened Def Con from 0.14643 to 0.14643
Heightened Def Con from 0.14643 to 0.14643
Heightened Def Con from 0.14643 to 0.14643
Heightened Def Con from 0.14643 to 0.14643
Heightened Def Con from 0.14643 to 0.14643
Heightened Def Con from 0.14643 to 0.14643
Heightened Def Con from 0.146524 to 0.146524
Heightened Def Con from 0.146524 to 0.146524
Heightened Def Con from 0.146524 to 0.146524
Heightened Def Con from 0.146524 to 0.146524
Heightened Def Con from 0.146618 to 0.146618
Heightened Def Con from 0.146618 to 0.146618
Heightened Def Con from 0.14662 to 0.14662
Heightened Def Con from 0.14662 to 0.14662
Heightened Def Con from 0.14662 to 0.14662
Heightened Def Con from 0.14662 to 0.14662
Heightened Def Con from 0.14662 to 0.14662
Heightened Def Con from 0.146636 to 0.146636
Heightened Def Con from 0.146636 to 0.146636
Heightened Def Con from 0.146636 to 0.146636
Heightened Def Con from 0.146639 to 0.146639
Heightened Def Con from 0.146639 to 0.146639
Heightened Def Con from 0.146639 to 0.146639
Heightened Def Con from 0.146639 to 0.146639
Heightened Def Con from 0.146639 to 0.146639
Heightened Def Con from 0.14664 to 0.14664
Heightened Def Con from 0.155439 to 0.155439
Heightened Def Con from 0.155439 to 0.155439
Heightened Def Con from 0.155439 to 0.155439
Heightened Def Con from 0.1556 to 0.1556
Heightened Def Con from 0.1556 to 0.1556
Heightened Def Con from 0.1556 to 0.1556
Heightened Def Con from 0.1556 to 0.1556
Heightened Def Con from 0.1556 to 0.1556
Heightened Def Con from 0.1556 to 0.1556
Heightened Def Con from 0.1556 to 0.1556
Heightened Def Con from 0.1556 to 0.1556
Heightened Def Con from 0.1556 to 0.1556
Heightened Def Con from 0.1556 to 0.1556
Heightened Def Con from 0.1556 +to 0.1556
Heightened Def Con from 0.1556 to 0.1556
Heightened Def Con from 0.1556 to 0.1556
Heightened Def Con from 0.1556 to 0.1556
Heightened Def Con from 0.1556 to 0.1556
Heightened Def Con from 0.1556 to 0.1556
Heightened Def Con from 0.1556 to 0.1556
Heightened Def Con from 0.1556 to 0.1556
Heightened Def Con from 0.1556 to 0.1556
Heightened Def Con from 0.1556 to 0.1556
Heightened Def Con from 0.1556 to 0.1556
Heightened Def Con from 0.1556 to 0.1556
Heightened Def Con from 0.1556 to 0.1556
Heightened Def Con from 0.1556 +to 0.1556
Heightened Def Con from 0.1556 to 0.1556
Heightened Def Con from 0.155601 to 0.155601
Heightened Def Con from 0.155601 to 0.155601
Heightened Def Con from 0.155601 to 0.155601
Heightened Def Con from 0.155601 to 0.155601
Heightened Def Con from 0.155601 to 0.155601
Heightened Def Con from 0.155601 to 0.155601
Heightened Def Con from 0.155601 to 0.155601
Heightened Def Con from 0.155601 to 0.155601
Heightened Def Con from 0.155601 to 0.155601
Heightened Def Con from 0.155601 to 0.155601
Heightened Def Con from 0.155601 to 0.155601
Heightened Def Con from 0.155601 to 0.155601
Heightened Def Con from 0.155601 to 0.155601
Heightened Def Con from 0.155601 to 0.155601
Heightened Def Con from 0.155601 to 0.155601
Heightened Def Con from 0.155601 to 0.155601
Heightened Def Con from 0.155601 to 0.155601
Heightened Def Con from 0.155601 to 0.155601
Heightened Def Con from 0.155601 to 0.155601
Heightened Def Con from 0.155601 to 0.155601
Heightened Def Con from 0.155601 to 0.155601
Heightened Def Con from 0.155601 to 0.155601
Heightened Def Con from 0.155601 to 0.155601
Heightened Def Con from 0.155601 to 0.155601
Heightened Def Con from 0.155601 to 0.155601
Heightened Def Con from 0.155601 to 0.155601
Heightened Def Con from 0.155601 to 0.155601
Heightened Def Con from 0.155601 to 0.155601
Heightened Def Con from 0.155601 to 0.155601
Heightened Def Con from 0.155601 to 0.155601
Heightened Def Con from 0.155601 to 0.155601
Heightened Def Con from 0.155601 to 0.155601
Heightened Def Con from 0.155601 to 0.155601
Heightened Def Con from 0.155601 to 0.155601
Heightened Def Con from 0.155601 to 0.155601
Heightened Def Con from 0.155601 to 0.155601
Heightened Def Con from 0.155601 to 0.155601
Heightened Def Con from 0.155601 to 0.155601
Heightened Def Con from 0.155601 to 0.155601
Heightened Def Con from 0.155601 to 0.155601
Heightened Def Con from 0.155601 to 0.155601
Heightened Def Con from 0.155601 to 0.155601
Heightened Def Con from 0.155601 to 0.155601
Heightened Def Con from 0.155601 to 0.155601
Heightened Def Con from 0.155601 to 0.155601
Heightened Def Con from 0.155601 to 0.155601
Heightened Def Con from 0.155601 to 0.155601
Heightened Def Con from 0.155601 to 0.155601
Heightened Def Con from 0.155601 to 0.155601
Heightened Def Con from 0.155601 to 0.155601
Heightened Def Con from 0.155602 to 0.155602
Heightened Def Con from 0.155602 to 0.155602
Heightened Def Con from 0.155602 to 0.155602
Heightened Def Con from 0.155602 to 0.155602
Heightened Def Con from 0.155602 to 0.155602
Heightened Def Con from 0.155602 to 0.155602
Heightened Def Con from 0.155614 to 0.155614
Heightened Def Con from 0.155614 to 0.155614
Heightened Def Con from 0.155614 to 0.155614
Heightened Def Con from 0.155614 to 0.155614
Heightened Def Con from 0.155614 to 0.155614
Heightened Def Con from 0.155614 to 0.155614
Heightened Def Con from 0.155617 to 0.155617
Heightened Def Con from 0.155699 to 0.155699
Heightened Def Con from 0.155699 to 0.155699
Heightened Def Con from 0.155699 to 0.155699
Heightened Def Con from 0.155699 to 0.155699
Heightened Def Con from 0.155699 to 0.155699
Heightened Def Con from 0.155699 to 0.155699
Heightened Def Con from 0.155699 to 0.155699
Heightened Def Con from 0.155699 to 0.155699
Heightened Def Con from 0.155699 to 0.155699
Heightened Def Con from 0.155699 to 0.155699
Heightened Def Con from 0.155699 to 0.155699
Heightened Def Con from 0.155699 to 0.155699
Heightened Def Con from 0.155699 to 0.155699
Heightened Def Con from 0.155699 to 0.155699
Heightened Def Con from 0.155699 to 0.155699
Heightened Def Con from 0.155699 to 0.155699
Heightened Def Con from 0.155699 to 0.155699
Heightened Def Con from 0.155699 to 0.155699
Heightened Def Con from 0.1557 to 0.1557
Heightened Def Con from 0.1557 to 0.1557
Heightened Def Con from 0.1557 to 0.1557
Heightened Def Con from 0.1557 to 0.1557
Heightened Def Con from 0.1557 to 0.1557
Heightened Def Con from 0.1557 to 0.1557
Heightened Def Con from 0.1557 to 0.1557
Heightened Def Con from 0.1557 to 0.1557
Heightened Def Con from 0.1557 to 0.1557
Heightened Def Con from 0.1557 to 0.1557
Heightened Def Con from 0.1557 to 0.1557
Heightened Def Con from 0.1557 to 0.1557
Heightened Def Con from 0.1557 to 0.1557
Heightened Def Con from 0.1557 to 0.1557
Heightened Def Con from 0.1557 to 0.1557
Heightened Def Con from 0.1557 to 0.1557
Heightened Def Con from 0.1557 to 0.1557
Heightened Def Con from 0.1557 to 0.1557
Heightened Def Con from 0.1557 to 0.1557
Heightened Def Con from 0.1557 to 0.1557
Heightened Def Con from 0.1557 to 0.1557
Heightened Def Con from 0.1557 to 0.1557
Heightened Def Con from 0.1557 to 0.1557
Heightened Def Con from 0.1557 to 0.1557
Heightened Def Con from 0.1557 to 0.1557
Heightened Def Con from 0.1557 to 0.1557
Heightened Def Con from 0.1557 to 0.1557
Heightened Def Con from 0.1557 to 0.1557
Heightened Def Con from 0.1557 to 0.1557
Heightened Def Con from 0.1557 to 0.1557
Heightened Def Con from 0.1557 to 0.1557
Heightened Def Con from 0.155702 to 0.155702
Heightened Def Con from 0.155702 to 0.155702
Heightened Def Con from 0.155702 to 0.155702
Heightened Def Con from 0.155702 to 0.155702
Heightened Def Con from 0.155702 to 0.155702
Heightened Def Con from 0.155702 to 0.155702
Heightened Def Con from 0.155702 to 0.155702
Heightened Def Con from 0.155702 to 0.155702
Heightened Def Con from 0.155702 to 0.155702
Heightened Def Con from 0.155702 to 0.155702
Heightened Def Con from 0.155702 to 0.155702
Heightened Def Con from 0.155702 +to 0.155703
Heightened Def Con from 0.155703 to 0.155703
Heightened Def Con from 0.155703 to 0.155703
Heightened Def Con from 0.155703 to 0.155703
Heightened Def Con from 0.155703 to 0.155703
Heightened Def Con from 0.155703 to 0.155703
Heightened Def Con from 0.155703 to 0.155703
Heightened Def Con from 0.155703 to 0.155703
Heightened Def Con from 0.155728 to 0.155728
Heightened Def Con from 0.155728 to 0.155728
Heightened Def Con from 0.155728 to 0.155728
Heightened Def Con from 0.156094 to 0.156094
Heightened Def Con from 0.156096 to 0.156096
Heightened Def Con from 0.156096 to 0.156096
Heightened Def Con from 0.156096 to 0.156096
Heightened Def Con from 0.156096 to 0.156096
Heightened Def Con from 0.156096 to 0.156096
Heightened Def Con from 0.156096 to 0.156096
Heightened Def Con from 0.156096 to 0.156096
Heightened Def Con from 0.156096 +to 0.156096
Heightened Def Con from 0.156096 to 0.156096
Heightened Def Con from 0.156096 to 0.156096
Heightened Def Con from 0.156096 to 0.156096
Heightened Def Con from 0.156096 to 0.156096
Heightened Def Con from 0.156096 to 0.156096
Heightened Def Con from 0.156096 to 0.156096
Heightened Def Con from 0.156096 to 0.156096
Heightened Def Con from 0.156096 to 0.156096
Heightened Def Con from 0.156496 to 0.156496
Heightened Def Con from 0.156496 to 0.156496
Heightened Def Con from 0.156496 to 0.156496
Heightened Def Con from 0.156496 to 0.156496
Heightened Def Con from 0.156496 to 0.156496
Heightened Def Con from 0.156496 to 0.156496
Heightened Def Con from 0.156496 to 0.156496
Heightened Def Con from 0.156504 to 0.156504
Heightened Def Con from 0.156505 to 0.156505
Heightened Def Con from 0.156505 to 0.156505
Heightened Def Con from 0.156505 to 0.156505
Heightened Def Con from 0.156505 to 0.156505
Heightened Def Con from 0.156505 to 0.156505
Heightened Def Con from 0.156505 to 0.156505
Heightened Def Con from 0.156505 to 0.156505
Heightened Def Con from 0.156505 to 0.156505
Heightened Def Con from 0.156505 to 0.156505
Heightened Def Con from 0.156505 to 0.156505
Heightened Def Con from 0.156505 to 0.156505
Heightened Def Con from 0.156505 to 0.156505
Heightened Def Con from 0.156515 to 0.156515
Heightened Def Con from 0.156515 to 0.156515
Heightened Def Con from 0.156602 to 0.156602
Heightened Def Con from 0.156602 to 0.156602
Heightened Def Con from 0.156602 to 0.156602
Heightened Def Con from 0.156617 to 0.156617
Heightened Def Con from 0.156618 to 0.156618
Heightened Def Con from 0.15662 to 0.15662
Heightened Def Con from 0.156647 to 0.156647
Heightened Def Con from 0.156649 to 0.156649
Heightened Def Con from 0.156649 to 0.156649

Date: Thu Jan 16 00:36:32 2020
Total elapsed time: 18.173 seconds.

tnom = 27
temp = 27
method = modified trap
totiter = 2998287
traniter = 2998287
tranpoints = 391619
accept = 227914
rejected = 175702
matrix size = 53
fillins = 40
solver = Normal
Matrix Compiler1: 4.49 KB object code size  1.2/0.8/[0.3]
Matrix Compiler2: 4.64 KB object code size  0.5/0.9/[0.4]

